
  CDK    9/16/09,9:20

 38 43  0  0  0  0  0  0  0  0999 V2000
   16.0655  -11.9850    0.0000 C   0  0  0  0  0  0  0  0  0  0  0  0
   16.0627  -10.3339    0.0000 C   0  0  0  0  0  0  0  0  0  0  0  0
   16.7791  -10.7426    0.0000 C   0  0  0  0  0  0  0  0  0  0  0  0
   16.7773  -11.5780    0.0000 C   0  0  0  0  0  0  0  0  0  0  0  0
   17.4917  -11.9918    0.0000 C   0  0  0  0  0  0  0  0  0  0  0  0
   17.4953  -10.3292    0.0000 C   0  0  0  0  0  0  0  0  0  0  0  0
   18.2166  -10.7457    0.0000 C   0  0  0  0  0  0  0  0  0  0  0  0
   18.2117  -11.5783    0.0000 C   0  0  0  0  0  0  0  0  0  0  0  0
   19.0023  -11.8371    0.0000 C   0  0  0  0  0  0  0  0  0  0  0  0
   19.4931  -11.1675    0.0000 O   0  0  0  0  0  0  0  0  0  0  0  0
   19.0061  -10.4923    0.0000 C   0  0  0  0  0  0  0  0  0  0  0  0
   15.3500  -11.5749    0.0000 C   0  0  0  0  0  0  0  0  0  0  0  0
   15.3519  -10.7457    0.0000 C   0  0  0  0  0  0  0  0  0  0  0  0
   14.5678  -10.4909    0.0000 O   0  0  0  0  0  0  0  0  0  0  0  0
   14.0772  -11.1595    0.0000 C   0  0  0  0  0  0  0  0  0  0  0  0
   14.5648  -11.8301    0.0000 O   0  0  0  0  0  0  0  0  0  0  0  0
   19.2528  -12.6218    0.0000 O   0  0  0  0  0  0  0  0  0  0  0  0
   17.4940  -12.8124    0.0000 C   0  0  0  0  0  0  0  0  0  0  0  0
   16.7800  -13.2239    0.0000 C   0  0  0  0  0  0  0  0  0  0  0  0
   16.7779  -14.0461    0.0000 C   0  0  0  0  0  0  0  0  0  0  0  0
   17.4929  -14.4623    0.0000 C   0  0  0  0  0  0  0  0  0  0  0  0
   18.2080  -14.0432    0.0000 C   0  0  0  0  0  0  0  0  0  0  0  0
   18.2048  -13.2231    0.0000 C   0  0  0  0  0  0  0  0  0  0  0  0
   18.9244  -14.4544    0.0000 O   0  0  0  0  0  0  0  0  0  0  0  0
   17.4931  -15.2856    0.0000 O   0  0  0  0  0  0  0  0  0  0  0  0
   18.2166   -9.9207    0.0000 H   0  0  0  0  0  0  0  0  0  0  0  0
   18.2117  -12.4033    0.0000 H   0  0  0  0  0  0  0  0  0  0  0  0
   16.0622  -14.4564    0.0000 O   0  0  0  0  0  0  0  0  0  0  0  0
   15.3490  -14.0417    0.0000 C   0  0  0  0  0  0  0  0  0  0  0  0
   19.6379  -14.0402    0.0000 C   0  0  0  0  0  0  0  0  0  0  0  0
   17.4954   -9.5042    0.0000 N   0  0  0  0  0  0  0  0  0  0  0  0
   16.7809   -9.0916    0.0000 C   0  0  0  0  0  0  0  0  0  0  0  0
   16.7856   -8.2696    0.0000 C   0  0  0  0  0  0  0  0  0  0  0  0
   16.0720   -7.8571    0.0000 C   0  0  0  0  0  0  0  0  0  0  0  0
   15.3565   -8.2696    0.0000 C   0  0  0  0  0  0  0  0  0  0  0  0
   15.3590   -9.0989    0.0000 C   0  0  0  0  0  0  0  0  0  0  0  0
   16.0732   -9.5077    0.0000 C   0  0  0  0  0  0  0  0  0  0  0  0
   14.6415   -7.8580    0.0000 F   0  0  0  0  0  0  0  0  0  0  0  0
  8  9  1  0  0  0  0 
  9 10  1  0  0  0  0 
 10 11  1  0  0  0  0 
  7 11  1  0  0  0  0 
 12 13  2  0  0  0  0 
 13 14  1  0  0  0  0 
 14 15  1  0  0  0  0 
 15 16  1  0  0  0  0 
 16 12  1  0  0  0  0 
  9 17  2  0  0  0  0 
 18 19  1  0  0  0  0 
 19 20  2  0  0  0  0 
 20 21  1  0  0  0  0 
 21 22  2  0  0  0  0 
 22 23  1  0  0  0  0 
 23 18  2  0  0  0  0 
  5 18  1  6  0  0  0 
 22 24  1  0  0  0  0 
 21 25  1  0  0  0  0 
  7 26  1  6  0  0  0 
  8 27  1  1  0  0  0 
 20 28  1  0  0  0  0 
 12  1  1  0  0  0  0 
 28 29  1  0  0  0  0 
  1  4  2  0  0  0  0 
 24 30  1  0  0  0  0 
  3  2  2  0  0  0  0 
  6 31  1  1  0  0  0 
  2 13  1  0  0  0  0 
 31 32  1  0  0  0  0 
  3  4  1  0  0  0  0 
 32 33  2  0  0  0  0 
  3  6  1  0  0  0  0 
 33 34  1  0  0  0  0 
  4  5  1  0  0  0  0 
 34 35  2  0  0  0  0 
  5  8  1  0  0  0  0 
 35 36  1  0  0  0  0 
  7  6  1  0  0  0  0 
 36 37  2  0  0  0  0 
 37 32  1  0  0  0  0 
  7  8  1  0  0  0  0 
 35 38  1  0  0  0  0 
M  END
> <chembl_id>
CHEMBL281692

$$$$

  CDK    9/16/09,9:20

 45 50  0  0  0  0  0  0  0  0999 V2000
   11.1488   -3.2267    0.0000 C   0  0  0  0  0  0  0  0  0  0  0  0
   11.1461   -1.5756    0.0000 C   0  0  0  0  0  0  0  0  0  0  0  0
   11.8624   -1.9842    0.0000 C   0  0  0  0  0  0  0  0  0  0  0  0
   11.8606   -2.8197    0.0000 C   0  0  0  0  0  0  0  0  0  0  0  0
   12.5750   -3.2334    0.0000 C   0  0  0  0  0  0  0  0  0  0  0  0
   12.5786   -1.5708    0.0000 C   0  0  0  0  0  0  0  0  0  0  0  0
   13.3000   -1.9874    0.0000 C   0  0  0  0  0  0  0  0  0  0  0  0
   13.2950   -2.8200    0.0000 C   0  0  0  0  0  0  0  0  0  0  0  0
   14.0856   -3.0787    0.0000 C   0  0  0  0  0  0  0  0  0  0  0  0
   14.5765   -2.4092    0.0000 O   0  0  0  0  0  0  0  0  0  0  0  0
   14.0894   -1.7340    0.0000 C   0  0  0  0  0  0  0  0  0  0  0  0
   10.4334   -2.8166    0.0000 C   0  0  0  0  0  0  0  0  0  0  0  0
   10.4352   -1.9874    0.0000 C   0  0  0  0  0  0  0  0  0  0  0  0
    9.6511   -1.7326    0.0000 O   0  0  0  0  0  0  0  0  0  0  0  0
    9.1606   -2.4012    0.0000 C   0  0  0  0  0  0  0  0  0  0  0  0
    9.6481   -3.0718    0.0000 O   0  0  0  0  0  0  0  0  0  0  0  0
   14.3361   -3.8635    0.0000 O   0  0  0  0  0  0  0  0  0  0  0  0
   12.5773   -4.0541    0.0000 C   0  0  0  0  0  0  0  0  0  0  0  0
   11.8633   -4.4656    0.0000 C   0  0  0  0  0  0  0  0  0  0  0  0
   11.8613   -5.2877    0.0000 C   0  0  0  0  0  0  0  0  0  0  0  0
   12.5763   -5.7040    0.0000 C   0  0  0  0  0  0  0  0  0  0  0  0
   13.2914   -5.2849    0.0000 C   0  0  0  0  0  0  0  0  0  0  0  0
   13.2881   -4.4648    0.0000 C   0  0  0  0  0  0  0  0  0  0  0  0
   14.0078   -5.6961    0.0000 O   0  0  0  0  0  0  0  0  0  0  0  0
   12.5764   -6.5273    0.0000 O   0  0  0  0  0  0  0  0  0  0  0  0
   13.3000   -1.1624    0.0000 H   0  0  0  0  0  0  0  0  0  0  0  0
   13.2950   -3.6450    0.0000 H   0  0  0  0  0  0  0  0  0  0  0  0
   11.1455   -5.6980    0.0000 O   0  0  0  0  0  0  0  0  0  0  0  0
   10.4323   -5.2834    0.0000 C   0  0  0  0  0  0  0  0  0  0  0  0
   14.7212   -5.2818    0.0000 C   0  0  0  0  0  0  0  0  0  0  0  0
   12.5787   -0.7458    0.0000 N   0  0  0  0  0  0  0  0  0  0  0  0
   11.8643   -0.3333    0.0000 C   0  0  0  0  0  0  0  0  0  0  0  0
   11.8689    0.4887    0.0000 C   0  0  0  0  0  0  0  0  0  0  0  0
   11.1553    0.9012    0.0000 C   0  0  0  0  0  0  0  0  0  0  0  0
   10.4398    0.4887    0.0000 C   0  0  0  0  0  0  0  0  0  0  0  0
   10.4424   -0.3406    0.0000 C   0  0  0  0  0  0  0  0  0  0  0  0
   11.1566   -0.7493    0.0000 C   0  0  0  0  0  0  0  0  0  0  0  0
   11.1558    1.7262    0.0000 C   0  0  0  0  0  0  0  0  0  0  0  0
   11.1500    2.5542    0.0000 F   0  0  0  0  0  0  0  0  0  0  0  0
   11.9808    1.7288    0.0000 F   0  0  0  0  0  0  0  0  0  0  0  0
   10.3308    1.7205    0.0000 F   0  0  0  0  0  0  0  0  0  0  0  0
    9.7293   -0.7555    0.0000 C   0  0  0  0  0  0  0  0  0  0  0  0
    9.0125   -1.1625    0.0000 F   0  0  0  0  0  0  0  0  0  0  0  0
   10.1405   -1.4708    0.0000 F   0  0  0  0  0  0  0  0  0  0  0  0
    9.3176   -0.0406    0.0000 F   0  0  0  0  0  0  0  0  0  0  0  0
 15 16  1  0  0  0  0 
 16 12  1  0  0  0  0 
  9 17  2  0  0  0  0 
 18 19  1  0  0  0  0 
 19 20  2  0  0  0  0 
 20 21  1  0  0  0  0 
 21 22  2  0  0  0  0 
 22 23  1  0  0  0  0 
 23 18  2  0  0  0  0 
  5 18  1  6  0  0  0 
 22 24  1  0  0  0  0 
 21 25  1  0  0  0  0 
  7 26  1  6  0  0  0 
  8 27  1  1  0  0  0 
 20 28  1  0  0  0  0 
 12  1  1  0  0  0  0 
 28 29  1  0  0  0  0 
  1  4  2  0  0  0  0 
 24 30  1  0  0  0  0 
  3  2  2  0  0  0  0 
  6 31  1  1  0  0  0 
  2 13  1  0  0  0  0 
 31 32  1  0  0  0  0 
  3  4  1  0  0  0  0 
 32 33  2  0  0  0  0 
  3  6  1  0  0  0  0 
 33 34  1  0  0  0  0 
  4  5  1  0  0  0  0 
 34 35  2  0  0  0  0 
  5  8  1  0  0  0  0 
 35 36  1  0  0  0  0 
  7  6  1  0  0  0  0 
 36 37  2  0  0  0  0 
 37 32  1  0  0  0  0 
  7  8  1  0  0  0  0 
 34 38  1  0  0  0  0 
  8  9  1  0  0  0  0 
 38 39  1  0  0  0  0 
  9 10  1  0  0  0  0 
 38 40  1  0  0  0  0 
 10 11  1  0  0  0  0 
 38 41  1  0  0  0  0 
  7 11  1  0  0  0  0 
 36 42  1  0  0  0  0 
 12 13  2  0  0  0  0 
 42 43  1  0  0  0  0 
 13 14  1  0  0  0  0 
 42 44  1  0  0  0  0 
 14 15  1  0  0  0  0 
 42 45  1  0  0  0  0 
M  END
> <chembl_id>
CHEMBL430726

$$$$

  SciTegic11201309402D

 37 42  0  0  1  0            999 V2000
    7.1167   -4.9917    0.0000 C   0  0  1  0  0  0
    6.0875   -5.6250    0.0000 C   0  0
    6.0667   -5.0167    0.0000 C   0  0
    7.1292   -5.6000    0.0000 C   0  0  1  0  0  0
    6.6167   -5.9167    0.0000 C   0  0  2  0  0  0
    6.5792   -4.7042    0.0000 C   0  0  1  0  0  0
    6.6292   -6.5167    0.0000 C   0  0
    7.7125   -5.7542    0.0000 C   0  0
    5.5417   -4.7417    0.0000 C   0  0
    5.5792   -5.9417    0.0000 C   0  0
    6.6625   -7.7167    0.0000 C   0  0
    8.0542   -5.2750    0.0000 O   0  0
    7.7042   -4.8292    0.0000 C   0  0
    7.1750   -7.3917    0.0000 C   0  0
    6.1292   -7.4250    0.0000 C   0  0
    5.0375   -5.0542    0.0000 C   0  0
    5.0542   -5.6542    0.0000 C   0  0
    6.5667   -4.1042    0.0000 N   0  0
    6.1167   -6.8250    0.0000 C   0  0
    7.1542   -6.7917    0.0000 C   0  0
    4.4542   -4.8875    0.0000 O   0  0
    4.4875   -5.8667    0.0000 O   0  0
    4.1125   -5.3792    0.0000 C   0  0
    7.9042   -6.3167    0.0000 O   0  0
    7.5875   -2.8417    0.0000 N   0  0
    6.6792   -8.3167    0.0000 O   0  0
    7.0917   -3.7792    0.0000 C   0  0
    7.7042   -7.6792    0.0000 O   0  0
    5.6167   -7.7417    0.0000 O   0  0
    7.0667   -3.1667    0.0000 C   0  0
    8.1292   -3.1417    0.0000 C   0  0
    7.6167   -4.0667    0.0000 C   0  0
    5.6417   -8.3417    0.0000 C   0  0
    7.7167   -8.2792    0.0000 C   0  0
    8.1417   -3.7542    0.0000 C   0  0
    7.2762   -6.5891    0.0000 H   0  0
    7.2271   -3.9978    0.0000 H   0  0
  2  3  2  0
  3  6  1  0
  4  1  1  0
  5  4  1  0
  6  1  1  0
  5  7  1  6
  4  8  1  0
  9  3  1  0
 10  2  1  0
 11 14  1  0
 12 13  1  0
  1 13  1  0
 14 20  2  0
 15 19  1  0
 16  9  2  0
 17 16  1  0
  6 18  1  1
 19  7  2  0
 20  7  1  0
 21 16  1  0
 22 17  1  0
 23 21  1  0
 24  8  2  0
 25 30  1  0
 26 11  1  0
 27 18  1  0
 28 14  1  0
 29 15  1  0
 30 27  2  0
 31 35  1  0
 32 27  1  0
 33 29  1  0
 34 28  1  0
 35 32  2  0
  8 12  1  0
  2  5  1  0
 10 17  2  0
 15 11  2  0
 31 25  2  0
 23 22  1  0
  4 36  1  1
  1 37  1  6
M  END
> <chembl_id>
CHEMBL281430

$$$$

  SciTegic11201309402D

 41 46  0  0  1  0            999 V2000
    6.8000   -5.6292    0.0000 C   0  0  1  0  0  0
    5.7917   -6.2417    0.0000 C   0  0
    5.7750   -5.6542    0.0000 C   0  0
    6.8125   -6.2167    0.0000 C   0  0  1  0  0  0
    6.3125   -6.5292    0.0000 C   0  0  2  0  0  0
    6.2792   -5.3417    0.0000 C   0  0  1  0  0  0
    6.3250   -7.1167    0.0000 C   0  0
    7.3792   -6.3667    0.0000 C   0  0
    5.2542   -5.3792    0.0000 C   0  0
    5.2917   -6.5542    0.0000 C   0  0
    6.3542   -8.2917    0.0000 C   0  0
    7.7167   -5.9042    0.0000 O   0  0
    7.3792   -5.4667    0.0000 C   0  0
    6.8542   -7.9792    0.0000 C   0  0
    5.8375   -8.0042    0.0000 C   0  0
    6.2625   -4.7542    0.0000 N   0  0
    4.7792   -6.2792    0.0000 C   0  0
    4.7625   -5.6875    0.0000 C   0  0
    5.8250   -7.4167    0.0000 C   0  0
    6.8417   -7.3917    0.0000 C   0  0
    6.7125   -3.7042    0.0000 C   0  0
    7.2375   -3.3167    0.0000 C   0  0
    4.1917   -5.5167    0.0000 O   0  0
    4.2250   -6.4792    0.0000 O   0  0
    6.7917   -4.3542    0.0000 C   0  0
    3.8542   -6.0042    0.0000 C   0  0
    7.8417   -3.5750    0.0000 C   0  0
    7.5750   -6.9167    0.0000 O   0  0
    7.9250   -4.2250    0.0000 C   0  0
    6.3667   -8.8792    0.0000 O   0  0
    7.3917   -4.6167    0.0000 C   0  0
    7.3792   -8.2542    0.0000 O   0  0
    5.3417   -8.3167    0.0000 O   0  0
    7.1542   -2.6542    0.0000 O   0  0
    8.3667   -3.1792    0.0000 O   0  0
    7.3917   -8.8417    0.0000 C   0  0
    5.3542   -8.9042    0.0000 C   0  0
    7.6792   -2.2542    0.0000 C   0  0
    8.2917   -2.5292    0.0000 C   0  0
    6.9619   -7.2055    0.0000 H   0  0
    6.9152   -4.6359    0.0000 H   0  0
  2  3  2  0
  3  6  1  0
  4  1  1  0
  5  4  1  0
  6  1  1  0
  5  7  1  6
  4  8  1  0
  9  3  1  0
 10  2  1  0
 11 14  1  0
 12 13  1  0
  1 13  1  0
 14 20  2  0
 15 19  1  0
  6 16  1  1
 17 18  1  0
 18  9  2  0
 19  7  2  0
 20  7  1  0
 21 25  1  0
 22 21  2  0
 23 18  1  0
 24 17  1  0
 25 16  1  0
 26 23  1  0
 27 29  2  0
 28  8  2  0
 29 31  1  0
 30 11  1  0
 31 25  2  0
 32 14  1  0
 33 15  1  0
 34 22  1  0
 35 27  1  0
 36 32  1  0
 37 33  1  0
 38 34  1  0
 39 35  1  0
  8 12  1  0
  2  5  1  0
 17 10  2  0
 15 11  2  0
 22 27  1  0
 26 24  1  0
  4 40  1  1
  1 41  1  6
M  END
> <chembl_id>
CHEMBL284291

$$$$

  SciTegic11201309402D

 45 50  0  0  1  0            999 V2000
    6.3917   -5.9500    0.0000 C   0  0  1  0  0  0
    5.3875   -6.5667    0.0000 C   0  0
    5.3667   -5.9750    0.0000 C   0  0
    6.4042   -6.5417    0.0000 C   0  0  1  0  0  0
    5.9042   -6.8500    0.0000 C   0  0  2  0  0  0
    5.8750   -5.6667    0.0000 C   0  0  1  0  0  0
    5.9167   -7.4375    0.0000 C   0  0
    6.9792   -6.6917    0.0000 C   0  0
    4.8542   -5.7000    0.0000 C   0  0
    4.8917   -6.8750    0.0000 C   0  0
    5.9500   -8.6125    0.0000 C   0  0
    7.3167   -6.2250    0.0000 O   0  0
    5.8542   -5.0792    0.0000 N   0  0
    7.5167   -4.5417    0.0000 C   0  0
    6.8292   -3.6375    0.0000 C   0  0
    6.9750   -5.7917    0.0000 C   0  0
    5.4292   -8.3292    0.0000 C   0  0
    6.4542   -8.3000    0.0000 C   0  0
    4.3792   -6.6000    0.0000 C   0  0
    4.3542   -6.0042    0.0000 C   0  0
    8.1292   -4.8042    0.0000 C   0  0
    6.7500   -2.9792    0.0000 C   0  0
    5.4167   -7.7417    0.0000 C   0  0
    6.4375   -7.7125    0.0000 C   0  0
    6.3875   -4.6792    0.0000 C   0  0
    7.4417   -3.8917    0.0000 C   0  0
    3.7875   -5.8417    0.0000 O   0  0
    3.8167   -6.8042    0.0000 O   0  0
    6.3042   -4.0292    0.0000 C   0  0
    6.9875   -4.9417    0.0000 C   0  0
    3.4542   -6.3292    0.0000 C   0  0
    7.1667   -7.2417    0.0000 O   0  0
    8.6542   -4.4000    0.0000 O   0  0
    6.1292   -2.7292    0.0000 O   0  0
    5.9667   -9.2000    0.0000 O   0  0
    6.9750   -8.5792    0.0000 O   0  0
    4.9375   -8.6375    0.0000 O   0  0
    8.1917   -5.4625    0.0000 O   0  0
    7.2792   -2.5917    0.0000 O   0  0
    4.9500   -9.2250    0.0000 C   0  0
    6.9875   -9.1667    0.0000 C   0  0
    8.8000   -5.7250    0.0000 C   0  0
    7.2042   -1.9375    0.0000 C   0  0
    6.5523   -7.5307    0.0000 H   0  0
    6.5097   -4.9570    0.0000 H   0  0
  2  3  2  0
  3  6  1  0
  4  1  1  0
  5  4  1  0
  6  1  1  0
  5  7  1  6
  4  8  1  0
  9  3  1  0
 10  2  1  0
 11 18  1  0
 12 16  1  0
  6 13  1  1
 14 30  1  0
 15 29  2  0
  1 16  1  0
 17 23  1  0
 18 24  2  0
 19 20  1  0
 20  9  2  0
 21 14  1  0
 22 15  1  0
 23  7  2  0
 24  7  1  0
 25 13  1  0
 26 14  2  0
 27 20  1  0
 28 19  1  0
 29 25  1  0
 30 25  2  0
 31 27  1  0
 32  8  2  0
 33 21  2  0
 34 22  2  0
 35 11  1  0
 36 18  1  0
 37 17  1  0
 38 21  1  0
 39 22  1  0
 40 37  1  0
 41 36  1  0
 42 38  1  0
 43 39  1  0
  8 12  1  0
  2  5  1  0
 19 10  2  0
 17 11  2  0
 15 26  1  0
 31 28  1  0
  4 44  1  1
  1 45  1  6
M  END
> <chembl_id>
CHEMBL286088

$$$$

  CDK    9/16/09,9:20

 41 46  0  0  0  0  0  0  0  0999 V2000
   15.4821  -11.3642    0.0000 C   0  0  0  0  0  0  0  0  0  0  0  0
   15.4794   -9.7131    0.0000 C   0  0  0  0  0  0  0  0  0  0  0  0
   16.1957  -10.1217    0.0000 C   0  0  0  0  0  0  0  0  0  0  0  0
   16.1939  -10.9572    0.0000 C   0  0  0  0  0  0  0  0  0  0  0  0
   16.9084  -11.3709    0.0000 C   0  0  0  0  0  0  0  0  0  0  0  0
   16.9120   -9.7083    0.0000 C   0  0  0  0  0  0  0  0  0  0  0  0
   17.6333  -10.1249    0.0000 C   0  0  0  0  0  0  0  0  0  0  0  0
   17.6283  -10.9575    0.0000 C   0  0  0  0  0  0  0  0  0  0  0  0
   18.4189  -11.2162    0.0000 C   0  0  0  0  0  0  0  0  0  0  0  0
   18.9098  -10.5467    0.0000 O   0  0  0  0  0  0  0  0  0  0  0  0
   18.4228   -9.8715    0.0000 C   0  0  0  0  0  0  0  0  0  0  0  0
   14.7667  -10.9541    0.0000 C   0  0  0  0  0  0  0  0  0  0  0  0
   14.7686  -10.1249    0.0000 C   0  0  0  0  0  0  0  0  0  0  0  0
   13.9844   -9.8701    0.0000 O   0  0  0  0  0  0  0  0  0  0  0  0
   13.4939  -10.5387    0.0000 C   0  0  0  0  0  0  0  0  0  0  0  0
   13.9814  -11.2093    0.0000 O   0  0  0  0  0  0  0  0  0  0  0  0
   18.6695  -12.0010    0.0000 O   0  0  0  0  0  0  0  0  0  0  0  0
   16.9106  -12.1916    0.0000 C   0  0  0  0  0  0  0  0  0  0  0  0
   16.1966  -12.6031    0.0000 C   0  0  0  0  0  0  0  0  0  0  0  0
   16.1946  -13.4252    0.0000 C   0  0  0  0  0  0  0  0  0  0  0  0
   16.9096  -13.8415    0.0000 C   0  0  0  0  0  0  0  0  0  0  0  0
   17.6247  -13.4224    0.0000 C   0  0  0  0  0  0  0  0  0  0  0  0
   17.6214  -12.6023    0.0000 C   0  0  0  0  0  0  0  0  0  0  0  0
   18.3411  -13.8336    0.0000 O   0  0  0  0  0  0  0  0  0  0  0  0
   16.9098  -14.6648    0.0000 O   0  0  0  0  0  0  0  0  0  0  0  0
   17.6333   -9.2999    0.0000 H   0  0  0  0  0  0  0  0  0  0  0  0
   17.6283  -11.7825    0.0000 H   0  0  0  0  0  0  0  0  0  0  0  0
   15.4789  -13.8355    0.0000 O   0  0  0  0  0  0  0  0  0  0  0  0
   14.7657  -13.4209    0.0000 C   0  0  0  0  0  0  0  0  0  0  0  0
   19.0545  -13.4193    0.0000 C   0  0  0  0  0  0  0  0  0  0  0  0
   16.9120   -8.8833    0.0000 N   0  0  0  0  0  0  0  0  0  0  0  0
   16.1976   -8.4708    0.0000 C   0  0  0  0  0  0  0  0  0  0  0  0
   16.2022   -7.6488    0.0000 C   0  0  0  0  0  0  0  0  0  0  0  0
   15.4886   -7.2363    0.0000 C   0  0  0  0  0  0  0  0  0  0  0  0
   14.7731   -7.6488    0.0000 C   0  0  0  0  0  0  0  0  0  0  0  0
   14.7757   -8.4781    0.0000 C   0  0  0  0  0  0  0  0  0  0  0  0
   15.4899   -8.8868    0.0000 C   0  0  0  0  0  0  0  0  0  0  0  0
   15.4898   -6.4090    0.0000 C   0  0  0  0  0  0  0  0  0  0  0  0
   16.2045   -5.9969    0.0000 O   0  0  0  0  0  0  0  0  0  0  0  0
   14.7756   -5.9961    0.0000 O   0  0  0  0  0  0  0  0  0  0  0  0
   16.9187   -6.4098    0.0000 C   0  0  0  0  0  0  0  0  0  0  0  0
  7 11  1  0  0  0  0 
 12 13  2  0  0  0  0 
 13 14  1  0  0  0  0 
 14 15  1  0  0  0  0 
 15 16  1  0  0  0  0 
 16 12  1  0  0  0  0 
  9 17  2  0  0  0  0 
 18 19  1  0  0  0  0 
 19 20  2  0  0  0  0 
 20 21  1  0  0  0  0 
 21 22  2  0  0  0  0 
 22 23  1  0  0  0  0 
 23 18  2  0  0  0  0 
  5 18  1  6  0  0  0 
 22 24  1  0  0  0  0 
 21 25  1  0  0  0  0 
  7 26  1  6  0  0  0 
  8 27  1  1  0  0  0 
 20 28  1  0  0  0  0 
 12  1  1  0  0  0  0 
 28 29  1  0  0  0  0 
  1  4  2  0  0  0  0 
 24 30  1  0  0  0  0 
  3  2  2  0  0  0  0 
  6 31  1  1  0  0  0 
  2 13  1  0  0  0  0 
 31 32  1  0  0  0  0 
  3  4  1  0  0  0  0 
 32 33  2  0  0  0  0 
  3  6  1  0  0  0  0 
 33 34  1  0  0  0  0 
  4  5  1  0  0  0  0 
 34 35  2  0  0  0  0 
  5  8  1  0  0  0  0 
 35 36  1  0  0  0  0 
  7  6  1  0  0  0  0 
 36 37  2  0  0  0  0 
 37 32  1  0  0  0  0 
  7  8  1  0  0  0  0 
  8  9  1  0  0  0  0 
  9 10  1  0  0  0  0 
 38 39  1  0  0  0  0 
 38 40  2  0  0  0  0 
 34 38  1  0  0  0  0 
 10 11  1  0  0  0  0 
 39 41  1  0  0  0  0 
M  END
> <chembl_id>
CHEMBL287330

$$$$

  SciTegic11201309402D

 38 43  0  0  1  0            999 V2000
    3.3292   -0.8792    0.0000 C   0  0  1  0  0  0
    2.3000   -1.5042    0.0000 C   0  0
    2.2792   -0.9042    0.0000 C   0  0
    3.3417   -1.4792    0.0000 C   0  0  1  0  0  0
    2.8292   -1.8000    0.0000 C   0  0  2  0  0  0
    2.7917   -0.5917    0.0000 C   0  0  1  0  0  0
    2.8417   -2.4000    0.0000 C   0  0
    3.9250   -1.6375    0.0000 C   0  0
    1.7542   -0.6250    0.0000 C   0  0
    1.7917   -1.8250    0.0000 C   0  0
    2.8750   -3.6000    0.0000 C   0  0
    4.2667   -1.1542    0.0000 O   0  0
    3.9167   -0.7125    0.0000 C   0  0
    3.3875   -3.2792    0.0000 C   0  0
    2.3417   -3.3042    0.0000 C   0  0
    1.2500   -0.9375    0.0000 C   0  0
    1.2667   -1.5417    0.0000 C   0  0
    3.3667   -2.6792    0.0000 C   0  0
    2.3292   -2.7042    0.0000 C   0  0
    2.7792    0.0083    0.0000 O   0  0
    0.6667   -0.7667    0.0000 O   0  0
    0.7000   -1.7500    0.0000 O   0  0
    0.3250   -1.2667    0.0000 C   0  0
    4.1167   -2.2000    0.0000 O   0  0
    3.3042    0.3333    0.0000 C   0  0
    2.8917   -4.1917    0.0000 O   0  0
    1.8375   -3.6250    0.0000 O   0  0
    3.9167   -3.5667    0.0000 O   0  0
    4.3375    0.9708    0.0000 C   0  0
    3.8292    0.0458    0.0000 C   0  0
    3.2792    0.9458    0.0000 C   0  0
    3.8000    1.2708    0.0000 C   0  0
    4.3542    0.3625    0.0000 C   0  0
    4.8500    1.2833    0.0000 O   0  0
    1.8542   -4.2250    0.0000 C   0  0
    3.9292   -4.1667    0.0000 C   0  0
    3.4883   -2.4684    0.0000 H   0  0
    3.4363    0.1150    0.0000 H   0  0
  2  3  2  0
  3  6  1  0
  4  1  1  0
  5  4  1  0
  6  1  1  0
  5  7  1  6
  4  8  1  0
  9  3  1  0
 10  2  1  0
 11 15  2  0
 12 13  1  0
  1 13  1  0
 14 18  2  0
 15 19  1  0
 16  9  2  0
 17 16  1  0
 18  7  1  0
 19  7  2  0
  6 20  1  1
 21 16  1  0
 22 17  1  0
 23 21  1  0
 24  8  2  0
 25 20  1  0
 26 11  1  0
 27 15  1  0
 28 14  1  0
 29 32  2  0
 30 25  1  0
 31 25  2  0
 32 31  1  0
 33 30  2  0
 34 29  1  0
 35 27  1  0
 36 28  1  0
  8 12  1  0
  2  5  1  0
 33 29  1  0
 17 10  2  0
 11 14  1  0
 23 22  1  0
  4 37  1  1
  1 38  1  6
M  END
> <chembl_id>
CHEMBL418771

$$$$

  SciTegic11201309402D

 40 46  0  0  1  0            999 V2000
    6.8417   -5.5042    0.0000 C   0  0  1  0  0  0
    5.8375   -6.1167    0.0000 C   0  0
    5.8167   -5.5292    0.0000 C   0  0
    6.8542   -6.0917    0.0000 C   0  0  1  0  0  0
    6.3542   -6.4042    0.0000 C   0  0  2  0  0  0
    6.3250   -5.2167    0.0000 C   0  0  1  0  0  0
    6.3667   -6.9917    0.0000 C   0  0
    7.4292   -6.2417    0.0000 C   0  0
    5.3042   -5.2542    0.0000 C   0  0
    5.3417   -6.4292    0.0000 C   0  0
    6.4000   -8.1667    0.0000 C   0  0
    7.7667   -5.7792    0.0000 O   0  0
    7.4250   -5.3417    0.0000 C   0  0
    6.9042   -7.8542    0.0000 C   0  0
    5.8792   -7.8792    0.0000 C   0  0
    6.3042   -4.6292    0.0000 N   0  0
    4.8292   -6.1542    0.0000 C   0  0
    4.8042   -5.5625    0.0000 C   0  0
    5.8667   -7.2917    0.0000 C   0  0
    6.8875   -7.2667    0.0000 C   0  0
    7.2792   -3.1917    0.0000 C   0  0
    6.7542   -3.5792    0.0000 C   0  0
    7.8875   -3.4500    0.0000 C   0  0
    4.2667   -6.3542    0.0000 O   0  0
    4.2375   -5.3917    0.0000 O   0  0
    7.3417   -2.5292    0.0000 O   0  0
    6.8375   -4.2292    0.0000 C   0  0
    8.3250   -2.9542    0.0000 O   0  0
    3.9042   -5.8792    0.0000 C   0  0
    7.9875   -2.3875    0.0000 C   0  0
    7.6167   -6.7917    0.0000 O   0  0
    7.9667   -4.1000    0.0000 C   0  0
    6.4167   -8.7542    0.0000 O   0  0
    7.4375   -4.4917    0.0000 C   0  0
    5.3875   -8.1917    0.0000 O   0  0
    7.4250   -8.1292    0.0000 O   0  0
    5.4000   -8.7792    0.0000 C   0  0
    7.4375   -8.7167    0.0000 C   0  0
    7.0053   -7.0802    0.0000 H   0  0
    6.9595   -4.5112    0.0000 H   0  0
  2  3  2  0
  3  6  1  0
  4  1  1  0
  5  4  1  0
  6  1  1  0
  5  7  1  6
  4  8  1  0
  9  3  1  0
 10  2  1  0
 11 14  1  0
 12 13  1  0
  1 13  1  0
 14 20  2  0
 15 19  1  0
  6 16  1  1
 17 18  1  0
 18  9  2  0
 19  7  2  0
 20  7  1  0
 21 22  2  0
 22 27  1  0
 23 32  2  0
 24 17  1  0
 25 18  1  0
 26 21  1  0
 27 16  1  0
 28 23  1  0
 29 25  1  0
 30 26  1  0
 31  8  2  0
 32 34  1  0
 33 11  1  0
 34 27  2  0
 35 15  1  0
 36 14  1  0
 37 35  1  0
 38 36  1  0
  8 12  1  0
  2  5  1  0
 17 10  2  0
 15 11  2  0
 21 23  1  0
 29 24  1  0
 28 30  1  0
  4 39  1  1
  1 40  1  6
M  END
> <chembl_id>
CHEMBL32519

$$$$

  SciTegic11201309402D

 41 47  0  0  1  0            999 V2000
    6.8000   -5.6250    0.0000 C   0  0  1  0  0  0
    5.7917   -6.2417    0.0000 C   0  0
    5.7750   -5.6500    0.0000 C   0  0
    6.8125   -6.2167    0.0000 C   0  0  1  0  0  0
    6.3125   -6.5250    0.0000 C   0  0  2  0  0  0
    6.2792   -5.3417    0.0000 C   0  0  1  0  0  0
    6.3250   -7.1125    0.0000 C   0  0
    7.3792   -6.3667    0.0000 C   0  0
    5.2542   -5.3750    0.0000 C   0  0
    5.2917   -6.5500    0.0000 C   0  0
    6.3542   -8.2875    0.0000 C   0  0
    7.7167   -5.9000    0.0000 O   0  0
    7.3792   -5.4667    0.0000 C   0  0
    6.8542   -7.9750    0.0000 C   0  0
    5.8375   -8.0042    0.0000 C   0  0
    6.2625   -4.7542    0.0000 N   0  0
    4.7792   -6.2750    0.0000 C   0  0
    4.7625   -5.6792    0.0000 C   0  0
    5.8250   -7.4167    0.0000 C   0  0
    6.8417   -7.3875    0.0000 C   0  0
    7.2375   -3.3125    0.0000 C   0  0
    6.7125   -3.7042    0.0000 C   0  0
    7.8417   -3.5667    0.0000 C   0  0
    4.2250   -6.4792    0.0000 O   0  0
    4.1917   -5.5167    0.0000 O   0  0
    6.7917   -4.3542    0.0000 C   0  0
    3.8542   -6.0042    0.0000 C   0  0
    7.1542   -2.6625    0.0000 O   0  0
    7.5750   -6.9167    0.0000 O   0  0
    8.3667   -3.1792    0.0000 O   0  0
    7.9250   -4.2167    0.0000 C   0  0
    6.3667   -8.8750    0.0000 O   0  0
    7.3917   -4.6167    0.0000 C   0  0
    7.3792   -8.2542    0.0000 O   0  0
    5.3417   -8.3125    0.0000 O   0  0
    7.6875   -2.2667    0.0000 C   0  0
    8.2917   -2.5250    0.0000 C   0  0
    7.3917   -8.8417    0.0000 C   0  0
    5.3542   -8.9000    0.0000 C   0  0
    6.9589   -7.2059    0.0000 H   0  0
    6.9154   -4.6317    0.0000 H   0  0
  2  3  2  0
  3  6  1  0
  4  1  1  0
  5  4  1  0
  6  1  1  0
  5  7  1  6
  4  8  1  0
  9  3  1  0
 10  2  1  0
 11 14  1  0
 12 13  1  0
  1 13  1  0
 14 20  2  0
 15 19  1  0
  6 16  1  1
 17 18  1  0
 18  9  2  0
 19  7  2  0
 20  7  1  0
 21 22  2  0
 22 26  1  0
 23 31  2  0
 24 17  1  0
 25 18  1  0
 26 16  1  0
 27 25  1  0
 28 21  1  0
 29  8  2  0
 30 23  1  0
 31 33  1  0
 32 11  1  0
 33 26  2  0
 34 14  1  0
 35 15  1  0
 36 28  1  0
 37 30  1  0
 38 34  1  0
 39 35  1  0
  8 12  1  0
  2  5  1  0
 17 10  2  0
 15 11  2  0
 21 23  1  0
 27 24  1  0
 36 37  1  0
  4 40  1  1
  1 41  1  6
M  END
> <chembl_id>
CHEMBL286896

$$$$

  CDK    9/16/09,9:20

 42 47  0  0  0  0  0  0  0  0999 V2000
   11.8821   -2.6392    0.0000 C   0  0  0  0  0  0  0  0  0  0  0  0
   11.8794   -0.9881    0.0000 C   0  0  0  0  0  0  0  0  0  0  0  0
   12.5957   -1.3967    0.0000 C   0  0  0  0  0  0  0  0  0  0  0  0
   12.5939   -2.2322    0.0000 C   0  0  0  0  0  0  0  0  0  0  0  0
   13.3084   -2.6459    0.0000 C   0  0  0  0  0  0  0  0  0  0  0  0
   13.3120   -0.9833    0.0000 C   0  0  0  0  0  0  0  0  0  0  0  0
   14.0333   -1.3999    0.0000 C   0  0  0  0  0  0  0  0  0  0  0  0
   14.0283   -2.2325    0.0000 C   0  0  0  0  0  0  0  0  0  0  0  0
   14.8189   -2.4912    0.0000 C   0  0  0  0  0  0  0  0  0  0  0  0
   15.3098   -1.8217    0.0000 O   0  0  0  0  0  0  0  0  0  0  0  0
   14.8228   -1.1465    0.0000 C   0  0  0  0  0  0  0  0  0  0  0  0
   11.1667   -2.2291    0.0000 C   0  0  0  0  0  0  0  0  0  0  0  0
   11.1686   -1.3999    0.0000 C   0  0  0  0  0  0  0  0  0  0  0  0
   10.3844   -1.1451    0.0000 O   0  0  0  0  0  0  0  0  0  0  0  0
    9.8939   -1.8137    0.0000 C   0  0  0  0  0  0  0  0  0  0  0  0
   10.3814   -2.4843    0.0000 O   0  0  0  0  0  0  0  0  0  0  0  0
   15.0695   -3.2760    0.0000 O   0  0  0  0  0  0  0  0  0  0  0  0
   13.3106   -3.4666    0.0000 C   0  0  0  0  0  0  0  0  0  0  0  0
   12.5966   -3.8781    0.0000 C   0  0  0  0  0  0  0  0  0  0  0  0
   12.5946   -4.7002    0.0000 C   0  0  0  0  0  0  0  0  0  0  0  0
   13.3096   -5.1165    0.0000 C   0  0  0  0  0  0  0  0  0  0  0  0
   14.0247   -4.6974    0.0000 C   0  0  0  0  0  0  0  0  0  0  0  0
   14.0214   -3.8773    0.0000 C   0  0  0  0  0  0  0  0  0  0  0  0
   14.7411   -5.1086    0.0000 O   0  0  0  0  0  0  0  0  0  0  0  0
   13.3098   -5.9398    0.0000 O   0  0  0  0  0  0  0  0  0  0  0  0
   14.0333   -0.5749    0.0000 H   0  0  0  0  0  0  0  0  0  0  0  0
   14.0283   -3.0575    0.0000 H   0  0  0  0  0  0  0  0  0  0  0  0
   11.8789   -5.1105    0.0000 O   0  0  0  0  0  0  0  0  0  0  0  0
   11.1657   -4.6959    0.0000 C   0  0  0  0  0  0  0  0  0  0  0  0
   15.4545   -4.6943    0.0000 C   0  0  0  0  0  0  0  0  0  0  0  0
   13.3120   -0.1583    0.0000 N   0  0  0  0  0  0  0  0  0  0  0  0
   12.5976    0.2542    0.0000 C   0  0  0  0  0  0  0  0  0  0  0  0
   12.6022    1.0762    0.0000 C   0  0  0  0  0  0  0  0  0  0  0  0
   11.8886    1.4887    0.0000 C   0  0  0  0  0  0  0  0  0  0  0  0
   11.1731    1.0762    0.0000 C   0  0  0  0  0  0  0  0  0  0  0  0
   11.1757    0.2469    0.0000 C   0  0  0  0  0  0  0  0  0  0  0  0
   11.8899   -0.1618    0.0000 C   0  0  0  0  0  0  0  0  0  0  0  0
   10.4562    1.4864    0.0000 C   0  0  0  0  0  0  0  0  0  0  0  0
   10.4552    2.3114    0.0000 O   0  0  0  0  0  0  0  0  0  0  0  0
    9.7422    1.0730    0.0000 O   0  0  0  0  0  0  0  0  0  0  0  0
   11.1691    2.7248    0.0000 C   0  0  0  0  0  0  0  0  0  0  0  0
   11.1681    3.5419    0.0000 C   0  0  0  0  0  0  0  0  0  0  0  0
 12 13  2  0  0  0  0 
 13 14  1  0  0  0  0 
 14 15  1  0  0  0  0 
 15 16  1  0  0  0  0 
 16 12  1  0  0  0  0 
  9 17  2  0  0  0  0 
 18 19  1  0  0  0  0 
 19 20  2  0  0  0  0 
 20 21  1  0  0  0  0 
 21 22  2  0  0  0  0 
 22 23  1  0  0  0  0 
 23 18  2  0  0  0  0 
  5 18  1  6  0  0  0 
 22 24  1  0  0  0  0 
 21 25  1  0  0  0  0 
  7 26  1  6  0  0  0 
  8 27  1  1  0  0  0 
 20 28  1  0  0  0  0 
 12  1  1  0  0  0  0 
 28 29  1  0  0  0  0 
  1  4  2  0  0  0  0 
 24 30  1  0  0  0  0 
  3  2  2  0  0  0  0 
  6 31  1  1  0  0  0 
  2 13  1  0  0  0  0 
 31 32  1  0  0  0  0 
  3  4  1  0  0  0  0 
 32 33  2  0  0  0  0 
  3  6  1  0  0  0  0 
 33 34  1  0  0  0  0 
  4  5  1  0  0  0  0 
 34 35  2  0  0  0  0 
  5  8  1  0  0  0  0 
 35 36  1  0  0  0  0 
  7  6  1  0  0  0  0 
 36 37  2  0  0  0  0 
 37 32  1  0  0  0  0 
  7  8  1  0  0  0  0 
  8  9  1  0  0  0  0 
  9 10  1  0  0  0  0 
 38 39  1  0  0  0  0 
 38 40  2  0  0  0  0 
 35 38  1  0  0  0  0 
 10 11  1  0  0  0  0 
 39 41  1  0  0  0  0 
  7 11  1  0  0  0  0 
 41 42  1  0  0  0  0 
M  END
> <chembl_id>
CHEMBL31343

$$$$

  CDK    9/16/09,9:20

 39 44  0  0  0  0  0  0  0  0999 V2000
   16.4988  -22.0934    0.0000 C   0  0  0  0  0  0  0  0  0  0  0  0
   16.4961  -20.4422    0.0000 C   0  0  0  0  0  0  0  0  0  0  0  0
   17.2124  -20.8509    0.0000 C   0  0  0  0  0  0  0  0  0  0  0  0
   17.2106  -21.6864    0.0000 C   0  0  0  0  0  0  0  0  0  0  0  0
   17.9250  -22.1001    0.0000 C   0  0  0  0  0  0  0  0  0  0  0  0
   17.9286  -20.4375    0.0000 C   0  0  0  0  0  0  0  0  0  0  0  0
   18.6500  -20.8540    0.0000 C   0  0  0  0  0  0  0  0  0  0  0  0
   18.6450  -21.6866    0.0000 C   0  0  0  0  0  0  0  0  0  0  0  0
   19.4356  -21.9454    0.0000 C   0  0  0  0  0  0  0  0  0  0  0  0
   19.9265  -21.2759    0.0000 O   0  0  0  0  0  0  0  0  0  0  0  0
   19.4394  -20.6007    0.0000 C   0  0  0  0  0  0  0  0  0  0  0  0
   15.7834  -21.6832    0.0000 C   0  0  0  0  0  0  0  0  0  0  0  0
   15.7852  -20.8540    0.0000 C   0  0  0  0  0  0  0  0  0  0  0  0
   15.0011  -20.5993    0.0000 O   0  0  0  0  0  0  0  0  0  0  0  0
   14.5106  -21.2679    0.0000 C   0  0  0  0  0  0  0  0  0  0  0  0
   14.9981  -21.9385    0.0000 O   0  0  0  0  0  0  0  0  0  0  0  0
   19.6861  -22.7302    0.0000 O   0  0  0  0  0  0  0  0  0  0  0  0
   17.9273  -22.9208    0.0000 C   0  0  0  0  0  0  0  0  0  0  0  0
   17.2133  -23.3323    0.0000 C   0  0  0  0  0  0  0  0  0  0  0  0
   17.2113  -24.1544    0.0000 C   0  0  0  0  0  0  0  0  0  0  0  0
   17.9263  -24.5707    0.0000 C   0  0  0  0  0  0  0  0  0  0  0  0
   18.6414  -24.1516    0.0000 C   0  0  0  0  0  0  0  0  0  0  0  0
   18.6381  -23.3315    0.0000 C   0  0  0  0  0  0  0  0  0  0  0  0
   19.3578  -24.5628    0.0000 O   0  0  0  0  0  0  0  0  0  0  0  0
   17.9264  -25.3940    0.0000 O   0  0  0  0  0  0  0  0  0  0  0  0
   18.6500  -20.0290    0.0000 H   0  0  0  0  0  0  0  0  0  0  0  0
   18.6450  -22.5116    0.0000 H   0  0  0  0  0  0  0  0  0  0  0  0
   16.4955  -24.5647    0.0000 O   0  0  0  0  0  0  0  0  0  0  0  0
   15.7823  -24.1500    0.0000 C   0  0  0  0  0  0  0  0  0  0  0  0
   20.0712  -24.1485    0.0000 C   0  0  0  0  0  0  0  0  0  0  0  0
   17.9287  -19.6125    0.0000 N   0  0  0  0  0  0  0  0  0  0  0  0
   17.2143  -19.1999    0.0000 C   0  0  0  0  0  0  0  0  0  0  0  0
   17.2189  -18.3780    0.0000 C   0  0  0  0  0  0  0  0  0  0  0  0
   16.5053  -17.9655    0.0000 C   0  0  0  0  0  0  0  0  0  0  0  0
   15.7898  -18.3780    0.0000 C   0  0  0  0  0  0  0  0  0  0  0  0
   15.7924  -19.2072    0.0000 C   0  0  0  0  0  0  0  0  0  0  0  0
   16.5066  -19.6160    0.0000 C   0  0  0  0  0  0  0  0  0  0  0  0
   15.0748  -17.9664    0.0000 C   0  0  0  0  0  0  0  0  0  0  0  0
   14.3542  -17.5500    0.0000 N   0  0  0  0  0  0  0  0  0  0  0  0
  9 10  1  0  0  0  0 
 10 11  1  0  0  0  0 
  7 11  1  0  0  0  0 
 12 13  2  0  0  0  0 
 13 14  1  0  0  0  0 
 14 15  1  0  0  0  0 
 15 16  1  0  0  0  0 
 16 12  1  0  0  0  0 
  9 17  2  0  0  0  0 
 18 19  1  0  0  0  0 
 19 20  2  0  0  0  0 
 20 21  1  0  0  0  0 
 21 22  2  0  0  0  0 
 22 23  1  0  0  0  0 
 23 18  2  0  0  0  0 
  5 18  1  6  0  0  0 
 22 24  1  0  0  0  0 
 21 25  1  0  0  0  0 
  7 26  1  6  0  0  0 
  8 27  1  1  0  0  0 
 20 28  1  0  0  0  0 
 12  1  1  0  0  0  0 
 28 29  1  0  0  0  0 
  1  4  2  0  0  0  0 
 24 30  1  0  0  0  0 
  3  2  2  0  0  0  0 
  6 31  1  1  0  0  0 
  2 13  1  0  0  0  0 
 31 32  1  0  0  0  0 
  3  4  1  0  0  0  0 
 32 33  2  0  0  0  0 
  3  6  1  0  0  0  0 
 33 34  1  0  0  0  0 
  4  5  1  0  0  0  0 
 34 35  2  0  0  0  0 
  5  8  1  0  0  0  0 
 35 36  1  0  0  0  0 
  7  6  1  0  0  0  0 
 36 37  2  0  0  0  0 
 37 32  1  0  0  0  0 
  7  8  1  0  0  0  0 
 35 38  1  0  0  0  0 
  8  9  1  0  0  0  0 
 38 39  3  0  0  0  0 
M  END
> <chembl_id>
CHEMBL285255

$$$$

  SciTegic11201309402D

 43 48  0  0  1  0            999 V2000
    6.6917   -5.6292    0.0000 C   0  0  1  0  0  0
    5.6792   -6.2417    0.0000 C   0  0
    5.6667   -5.6542    0.0000 C   0  0
    6.7042   -6.2167    0.0000 C   0  0  1  0  0  0
    6.2042   -6.5292    0.0000 C   0  0  2  0  0  0
    6.1667   -5.3417    0.0000 C   0  0  1  0  0  0
    6.2167   -7.1167    0.0000 C   0  0
    7.2750   -6.3667    0.0000 C   0  0
    5.1500   -5.3792    0.0000 C   0  0
    5.1875   -6.5542    0.0000 C   0  0
    6.2417   -8.2917    0.0000 C   0  0
    7.7375   -3.5750    0.0000 C   0  0
    7.6125   -5.9042    0.0000 O   0  0
    6.1542   -4.7542    0.0000 N   0  0
    7.2667   -5.4667    0.0000 C   0  0
    7.1292   -3.3167    0.0000 C   0  0
    7.8167   -4.2250    0.0000 C   0  0
    6.7500   -7.9792    0.0000 C   0  0
    5.7292   -8.0042    0.0000 C   0  0
    6.6792   -4.3542    0.0000 C   0  0
    4.6750   -6.2792    0.0000 C   0  0
    4.6542   -5.6875    0.0000 C   0  0
    5.7167   -7.4167    0.0000 C   0  0
    6.7292   -7.3917    0.0000 C   0  0
    6.6042   -3.7042    0.0000 C   0  0
    7.2792   -4.6167    0.0000 C   0  0
    4.0792   -5.5167    0.0000 O   0  0
    4.1167   -6.4792    0.0000 O   0  0
    3.7500   -6.0042    0.0000 C   0  0
    7.4667   -6.9167    0.0000 O   0  0
    6.2625   -8.8792    0.0000 O   0  0
    8.2542   -3.1792    0.0000 O   0  0
    7.0417   -2.6542    0.0000 O   0  0
    8.4250   -4.4875    0.0000 O   0  0
    5.2292   -8.3167    0.0000 O   0  0
    7.2667   -8.2542    0.0000 O   0  0
    8.1792   -2.5292    0.0000 C   0  0
    7.5750   -2.2542    0.0000 C   0  0
    7.2792   -8.8417    0.0000 C   0  0
    5.2417   -8.9042    0.0000 C   0  0
    8.5042   -5.1417    0.0000 C   0  0
    6.8544   -7.2053    0.0000 H   0  0
    6.8043   -4.6356    0.0000 H   0  0
  2  3  2  0
  3  6  1  0
  4  1  1  0
  5  4  1  0
  6  1  1  0
  5  7  1  6
  4  8  1  0
  9  3  1  0
 10  2  1  0
 11 18  1  0
 12 17  2  0
 13 15  1  0
  6 14  1  1
  1 15  1  0
 16 25  2  0
 17 26  1  0
 18 24  2  0
 19 23  1  0
 20 14  1  0
 21 22  1  0
 22  9  2  0
 23  7  2  0
 24  7  1  0
 25 20  1  0
 26 20  2  0
 27 22  1  0
 28 21  1  0
 29 27  1  0
 30  8  2  0
 31 11  1  0
 32 12  1  0
 33 16  1  0
 34 17  1  0
 35 19  1  0
 36 18  1  0
 37 32  1  0
 38 33  1  0
 39 36  1  0
 40 35  1  0
 41 34  1  0
  8 13  1  0
  2  5  1  0
 16 12  1  0
 21 10  2  0
 19 11  2  0
 29 28  1  0
  4 42  1  1
  1 43  1  6
M  END
> <chembl_id>
CHEMBL279781

$$$$

  SciTegic11201309402D

 41 47  0  0  1  0            999 V2000
    6.8625   -5.4500    0.0000 C   0  0  1  0  0  0
    5.8292   -6.0792    0.0000 C   0  0
    5.8167   -5.4750    0.0000 C   0  0
    6.8750   -6.0542    0.0000 C   0  0  1  0  0  0
    6.3625   -6.3667    0.0000 C   0  0  2  0  0  0
    6.3292   -5.1625    0.0000 C   0  0  1  0  0  0
    6.3792   -6.9667    0.0000 C   0  0
    7.4542   -6.2042    0.0000 C   0  0
    5.2875   -5.1917    0.0000 C   0  0
    5.3250   -6.3917    0.0000 C   0  0
    6.4042   -8.1667    0.0000 C   0  0
    7.8042   -5.7292    0.0000 O   0  0
    7.4542   -5.2792    0.0000 C   0  0
    6.9167   -7.8500    0.0000 C   0  0
    5.8792   -7.8792    0.0000 C   0  0
    6.3125   -4.5625    0.0000 N   0  0
    4.8042   -6.1125    0.0000 C   0  0
    4.7792   -5.5042    0.0000 C   0  0
    7.8917   -4.2042    0.0000 N   0  0
    6.9042   -7.2500    0.0000 C   0  0
    5.8667   -7.2792    0.0000 C   0  0
    4.2292   -6.3167    0.0000 O   0  0
    4.2000   -5.3417    0.0000 O   0  0
    6.8375   -4.2375    0.0000 C   0  0
    3.8542   -5.8375    0.0000 C   0  0
    7.3292   -3.3000    0.0000 C   0  0
    7.6542   -6.7667    0.0000 O   0  0
    7.8667   -3.6000    0.0000 C   0  0
    6.8167   -3.6250    0.0000 C   0  0
    7.3667   -4.5250    0.0000 C   0  0
    6.4250   -8.7667    0.0000 O   0  0
    7.4542   -8.1375    0.0000 O   0  0
    5.3667   -8.1917    0.0000 O   0  0
    7.3167   -2.6875    0.0000 C   0  0
    8.4000   -3.2792    0.0000 C   0  0
    7.4667   -8.7375    0.0000 C   0  0
    5.3875   -8.7917    0.0000 C   0  0
    7.8417   -2.3667    0.0000 C   0  0
    8.3875   -2.6625    0.0000 C   0  0
    7.0215   -7.0434    0.0000 H   0  0
    6.9690   -4.4557    0.0000 H   0  0
  2  3  2  0
  3  6  1  0
  4  1  1  0
  5  4  1  0
  6  1  1  0
  5  7  1  6
  4  8  1  0
  9  3  1  0
 10  2  1  0
 11 15  2  0
 12 13  1  0
  1 13  1  0
 14 20  2  0
 15 21  1  0
  6 16  1  1
 17 18  1  0
 18  9  2  0
 19 30  2  0
 20  7  1  0
 21  7  2  0
 22 17  1  0
 23 18  1  0
 24 16  1  0
 25 23  1  0
 26 29  1  0
 27  8  2  0
 28 19  1  0
 29 24  2  0
 30 24  1  0
 31 11  1  0
 32 14  1  0
 33 15  1  0
 34 26  1  0
 35 28  1  0
 36 32  1  0
 37 33  1  0
 38 34  2  0
 39 35  2  0
  8 12  1  0
  2  5  1  0
 17 10  2  0
 11 14  1  0
 26 28  2  0
 25 22  1  0
 39 38  1  0
  4 40  1  1
  1 41  1  6
M  END
> <chembl_id>
CHEMBL31959

$$$$

  SciTegic11201309402D

 39 43  0  0  0  0            999 V2000
    2.6043    0.7226    0.0000 C   0  0  1  0  0  0
    0.0000   -0.7090    0.0000 C   0  0
    0.0000    0.7226    0.0000 C   0  0
    2.6043   -0.7090    0.0000 C   0  0  1  0  0  0
    1.2953   -1.4862    0.0000 C   0  0  2  0  0  0
    1.2953    1.4998    0.0000 C   0  0  1  0  0  0
    1.2919   -2.9869    0.0000 C   0  0
    4.0359   -1.2135    0.0000 C   0  0
   -1.2953    1.4998    0.0000 C   0  0
   -1.2953   -1.4862    0.0000 C   0  0
    1.2488   -5.9862    0.0000 C   0  0
    4.9222    0.0000    0.0000 O   0  0
    4.0359    1.2135    0.0000 C   0  0
   -0.0395   -5.2179    0.0000 C   0  0
    2.5583   -5.2547    0.0000 C   0  0
   -2.6043    0.7226    0.0000 C   0  0
   -2.6043   -0.7090    0.0000 C   0  0
    1.2919    3.0001    0.0000 N   0  0
    2.5796   -3.7549    0.0000 C   0  0
   -0.0182   -3.7180    0.0000 C   0  0
   -4.0359    1.2135    0.0000 O   0  0
   -4.0359   -1.2135    0.0000 O   0  0
   -4.9222    0.0000    0.0000 C   0  0
    4.3912   -2.3597    0.0000 O   0  0
    2.5895    3.7544    0.0000 C   0  0
    1.2317   -7.1861    0.0000 O   0  0
    5.1863    5.2566    0.0000 C   0  0
   -1.3513   -5.9471    0.0000 O   0  0
    3.8489   -6.0209    0.0000 O   0  0
    6.2250    5.8576    0.0000 N   0  0
    8.9854   -0.7393    0.0000 Cl  0  0
    2.5882    5.2544    0.0000 C   0  0
    3.8892    3.0055    0.0000 C   0  0
    5.1876    3.7566    0.0000 C   0  0
    3.8866    6.0055    0.0000 C   0  0
   -2.3810   -5.3309    0.0000 C   0  0
    4.8957   -5.4342    0.0000 C   0  0
    2.7026   -1.7042    0.0000 H   0  0
    2.7069    1.7173    0.0000 H   0  0
  2  3  2  0
  1  4  1  0
  2  5  1  0
  4  5  1  0
  1  6  1  0
  3  6  1  0
  5  7  1  6
  4  8  1  0
  3  9  1  0
  2 10  1  0
  8 12  1  0
  1 13  1  0
 12 13  1  0
 11 14  1  0
 11 15  2  0
  9 16  2  0
 10 17  2  0
 16 17  1  0
  6 18  1  1
  7 19  2  0
 15 19  1  0
  7 20  1  0
 14 20  2  0
 16 21  1  0
 17 22  1  0
 21 23  1  0
 22 23  1  0
  8 24  2  0
 18 25  1  0
 11 26  1  0
 14 28  1  0
 15 29  1  0
 27 30  1  0
 25 32  1  0
 25 33  2  0
 27 34  2  0
 33 34  1  0
 27 35  1  0
 32 35  2  0
 28 36  1  0
 29 37  1  0
  4 38  1  1
  1 39  1  6
M  END
> <chembl_id>
CHEMBL554440

$$$$

  SciTegic11201309402D

 39 44  0  0  1  0            999 V2000
    7.0375   -5.6292    0.0000 C   0  0  1  0  0  0
    6.0292   -6.2417    0.0000 C   0  0
    6.0125   -5.6542    0.0000 C   0  0
    7.0500   -6.2167    0.0000 C   0  0  1  0  0  0
    6.5500   -6.5292    0.0000 C   0  0  2  0  0  0
    6.5167   -5.3417    0.0000 C   0  0  1  0  0  0
    6.5625   -7.1167    0.0000 C   0  0
    7.6167   -6.3667    0.0000 C   0  0
    5.4917   -5.3792    0.0000 C   0  0
    5.5292   -6.5542    0.0000 C   0  0
    6.5917   -8.2917    0.0000 C   0  0
    7.9542   -5.9042    0.0000 O   0  0
    7.6167   -5.4667    0.0000 C   0  0
    7.0917   -7.9792    0.0000 C   0  0
    6.0750   -8.0042    0.0000 C   0  0
    6.5000   -4.7542    0.0000 N   0  0
    5.0167   -6.2792    0.0000 C   0  0
    5.0000   -5.6875    0.0000 C   0  0
    6.0625   -7.4167    0.0000 C   0  0
    7.0792   -7.3917    0.0000 C   0  0
    4.4292   -5.5167    0.0000 O   0  0
    4.4625   -6.4792    0.0000 O   0  0
    4.0917   -6.0042    0.0000 C   0  0
    7.0292   -4.3542    0.0000 C   0  0
    7.8125   -6.9167    0.0000 O   0  0
    6.9500   -3.7042    0.0000 C   0  0
    6.6042   -8.8792    0.0000 O   0  0
    7.6167   -8.2542    0.0000 O   0  0
    5.5792   -8.3167    0.0000 O   0  0
    7.4750   -3.3167    0.0000 C   0  0
    7.3917   -2.6542    0.0000 O   0  0
    8.1625   -4.2250    0.0000 C   0  0
    7.6292   -4.6167    0.0000 C   0  0
    8.0792   -3.5750    0.0000 C   0  0
    5.5917   -8.9042    0.0000 C   0  0
    7.6292   -8.8417    0.0000 C   0  0
    7.9167   -2.2542    0.0000 C   0  0
    7.1994   -7.2055    0.0000 H   0  0
    7.1527   -4.6359    0.0000 H   0  0
  2  3  2  0
  3  6  1  0
  4  1  1  0
  5  4  1  0
  6  1  1  0
  5  7  1  6
  4  8  1  0
  9  3  1  0
 10  2  1  0
 11 14  1  0
 12 13  1  0
  1 13  1  0
 14 20  2  0
 15 19  1  0
  6 16  1  1
 17 18  1  0
 18  9  2  0
 19  7  2  0
 20  7  1  0
 21 18  1  0
 22 17  1  0
 23 21  1  0
 24 16  1  0
 25  8  2  0
 26 24  1  0
 27 11  1  0
 28 14  1  0
 29 15  1  0
 30 26  2  0
 31 30  1  0
 32 33  1  0
 33 24  2  0
 34 32  2  0
 35 29  1  0
 36 28  1  0
 37 31  1  0
  8 12  1  0
  2  5  1  0
 17 10  2  0
 15 11  2  0
 30 34  1  0
 23 22  1  0
  4 38  1  1
  1 39  1  6
M  END
> <chembl_id>
CHEMBL286418

$$$$

  SciTegic11201309402D

 43 49  0  0  1  0            999 V2000
    6.2542   -5.6875    0.0000 C   0  0  1  0  0  0
    5.2417   -6.3042    0.0000 C   0  0
    5.2292   -5.7125    0.0000 C   0  0
    6.2667   -6.2792    0.0000 C   0  0  1  0  0  0
    5.7667   -6.5875    0.0000 C   0  0  2  0  0  0
    5.7292   -5.4042    0.0000 C   0  0  1  0  0  0
    5.7792   -7.1750    0.0000 C   0  0
    6.8375   -6.4292    0.0000 C   0  0
    4.7125   -5.4375    0.0000 C   0  0
    4.7500   -6.6125    0.0000 C   0  0
    5.8042   -8.3500    0.0000 C   0  0
    7.1750   -5.9625    0.0000 O   0  0
    6.8292   -5.5292    0.0000 C   0  0
    6.3125   -8.0375    0.0000 C   0  0
    5.2917   -8.0667    0.0000 C   0  0
    4.2167   -5.7417    0.0000 C   0  0
    4.2375   -6.3375    0.0000 C   0  0
    5.7167   -4.8167    0.0000 N   0  0
    7.8167   -3.2417    0.0000 N   0  0
    6.2917   -7.4500    0.0000 C   0  0
    5.2792   -7.4792    0.0000 C   0  0
    7.2917   -3.6292    0.0000 C   0  0
    3.6417   -5.5792    0.0000 O   0  0
    3.6792   -6.5417    0.0000 O   0  0
    3.3125   -6.0667    0.0000 C   0  0
    7.0292   -6.9792    0.0000 O   0  0
    8.8667   -2.4625    0.0000 O   0  0
    6.2417   -4.4167    0.0000 C   0  0
    6.6917   -3.3750    0.0000 C   0  0
    7.3792   -4.2792    0.0000 C   0  0
    5.8250   -8.9375    0.0000 O   0  0
    6.8292   -8.3167    0.0000 O   0  0
    4.7917   -8.3750    0.0000 O   0  0
    6.1667   -3.7667    0.0000 C   0  0
    6.8417   -4.6792    0.0000 C   0  0
    8.4167   -3.5000    0.0000 C   0  0
    7.7417   -2.5917    0.0000 C   0  0
    8.2667   -2.2042    0.0000 C   0  0
    8.9417   -3.1125    0.0000 C   0  0
    6.8417   -8.9042    0.0000 C   0  0
    4.8042   -8.9625    0.0000 C   0  0
    6.4139   -7.2683    0.0000 H   0  0
    6.3671   -4.6939    0.0000 H   0  0
  2  3  2  0
  3  6  1  0
  4  1  1  0
  5  4  1  0
  6  1  1  0
  5  7  1  6
  4  8  1  0
  9  3  1  0
 10  2  1  0
 11 15  2  0
 12 13  1  0
  1 13  1  0
 14 20  2  0
 15 21  1  0
 16  9  2  0
 17 16  1  0
  6 18  1  1
 19 22  1  0
 20  7  1  0
 21  7  2  0
 22 30  2  0
 23 16  1  0
 24 17  1  0
 25 23  1  0
 26  8  2  0
 27 38  1  0
 28 18  1  0
 29 34  2  0
 30 35  1  0
 31 11  1  0
 32 14  1  0
 33 15  1  0
 34 28  1  0
 35 28  2  0
 36 19  1  0
 37 19  1  0
 38 37  1  0
 39 36  1  0
 40 32  1  0
 41 33  1  0
  8 12  1  0
  2  5  1  0
 29 22  1  0
 17 10  2  0
 11 14  1  0
 25 24  1  0
 39 27  1  0
  4 42  1  1
  1 43  1  6
M  END
> <chembl_id>
CHEMBL281541

$$$$

  SciTegic11201309402D

 44 50  0  0  1  0            999 V2000
    5.9125   -5.2375    0.0000 C   0  0  1  0  0  0
    4.9042   -5.8542    0.0000 C   0  0
    4.8875   -5.2625    0.0000 C   0  0
    5.9250   -5.8292    0.0000 C   0  0  1  0  0  0
    5.4250   -6.1375    0.0000 C   0  0  2  0  0  0
    5.3917   -4.9542    0.0000 C   0  0  1  0  0  0
    5.4375   -6.7250    0.0000 C   0  0
    6.4917   -5.9792    0.0000 C   0  0
    4.3667   -4.9875    0.0000 C   0  0
    4.4042   -6.1625    0.0000 C   0  0
    5.4667   -7.9000    0.0000 C   0  0
    6.8292   -5.5125    0.0000 O   0  0
    6.4917   -5.0792    0.0000 C   0  0
    5.9667   -7.5875    0.0000 C   0  0
    4.9500   -7.6167    0.0000 C   0  0
    3.8750   -5.2917    0.0000 C   0  0
    3.8917   -5.8875    0.0000 C   0  0
    5.3750   -4.3667    0.0000 N   0  0
    4.9375   -7.0292    0.0000 C   0  0
    5.9542   -7.0000    0.0000 C   0  0
    3.3042   -5.1292    0.0000 O   0  0
    3.3375   -6.0917    0.0000 O   0  0
    2.9667   -5.6167    0.0000 C   0  0
    6.6875   -6.5292    0.0000 O   0  0
    7.4792   -2.7917    0.0000 O   0  0
    5.9042   -3.9667    0.0000 C   0  0
    5.4792   -8.4875    0.0000 O   0  0
    6.9542   -3.1792    0.0000 C   0  0
    4.4542   -7.9250    0.0000 O   0  0
    6.4917   -7.8667    0.0000 O   0  0
    8.0792   -3.0500    0.0000 C   0  0
    6.5042   -4.2292    0.0000 C   0  0
    5.8250   -3.3167    0.0000 C   0  0
    6.3500   -2.9250    0.0000 C   0  0
    7.0375   -3.8292    0.0000 C   0  0
    6.5042   -8.4542    0.0000 C   0  0
    4.4667   -8.5125    0.0000 C   0  0
    8.1542   -3.7000    0.0000 C   0  0
    8.6000   -2.6542    0.0000 C   0  0
    9.2000   -2.9042    0.0000 C   0  0
    8.7542   -3.9542    0.0000 C   0  0
    9.2792   -3.5625    0.0000 C   0  0
    6.0714   -6.8184    0.0000 H   0  0
    6.0279   -4.2442    0.0000 H   0  0
  2  3  2  0
  3  6  1  0
  4  1  1  0
  5  4  1  0
  6  1  1  0
  5  7  1  6
  4  8  1  0
  9  3  1  0
 10  2  1  0
 11 14  1  0
 12 13  1  0
  1 13  1  0
 14 20  2  0
 15 19  1  0
 16  9  2  0
 17 16  1  0
  6 18  1  1
 19  7  2  0
 20  7  1  0
 21 16  1  0
 22 17  1  0
 23 21  1  0
 24  8  2  0
 25 28  1  0
 26 18  1  0
 27 11  1  0
 28 34  1  0
 29 15  1  0
 30 14  1  0
 31 25  1  0
 32 26  2  0
 33 26  1  0
 34 33  2  0
 35 32  1  0
 36 30  1  0
 37 29  1  0
 38 31  2  0
 39 31  1  0
 40 39  2  0
 41 38  1  0
 42 40  1  0
  8 12  1  0
  2  5  1  0
 35 28  2  0
 17 10  2  0
 15 11  2  0
 23 22  1  0
 41 42  2  0
  4 43  1  1
  1 44  1  6
M  END
> <chembl_id>
CHEMBL284921

$$$$

  SciTegic11201309402D

 42 47  0  0  1  0            999 V2000
    6.5042   -5.9500    0.0000 C   0  0  1  0  0  0
    5.5000   -6.5667    0.0000 C   0  0
    5.4792   -5.9750    0.0000 C   0  0
    6.5167   -6.5417    0.0000 C   0  0  1  0  0  0
    6.0167   -6.8500    0.0000 C   0  0  2  0  0  0
    5.9875   -5.6667    0.0000 C   0  0  1  0  0  0
    6.9417   -3.6375    0.0000 C   0  0
    6.0292   -7.4375    0.0000 C   0  0
    7.0917   -6.6917    0.0000 C   0  0
    5.0042   -6.8750    0.0000 C   0  0
    4.9667   -5.7000    0.0000 C   0  0
    6.0625   -8.6125    0.0000 C   0  0
    7.4292   -6.2250    0.0000 O   0  0
    6.8625   -2.9792    0.0000 C   0  0
    7.0875   -5.7917    0.0000 C   0  0
    6.5667   -8.3000    0.0000 C   0  0
    5.5417   -8.3292    0.0000 C   0  0
    5.9667   -5.0792    0.0000 N   0  0
    4.4917   -6.6000    0.0000 C   0  0
    4.4667   -6.0042    0.0000 C   0  0
    5.5292   -7.7417    0.0000 C   0  0
    6.5500   -7.7125    0.0000 C   0  0
    7.5542   -3.8917    0.0000 C   0  0
    6.4167   -4.0292    0.0000 C   0  0
    3.9000   -5.8417    0.0000 O   0  0
    3.9292   -6.8042    0.0000 O   0  0
    6.5000   -4.6792    0.0000 C   0  0
    3.5667   -6.3292    0.0000 C   0  0
    7.2792   -7.2417    0.0000 O   0  0
    6.2417   -2.7292    0.0000 O   0  0
    7.6292   -4.5417    0.0000 C   0  0
    6.0792   -9.2000    0.0000 O   0  0
    7.3917   -2.5917    0.0000 O   0  0
    7.1000   -4.9417    0.0000 C   0  0
    5.0500   -8.6375    0.0000 O   0  0
    7.0875   -8.5792    0.0000 O   0  0
    8.0750   -3.5042    0.0000 O   0  0
    7.1000   -9.1667    0.0000 C   0  0
    7.3167   -1.9375    0.0000 C   0  0
    5.0625   -9.2250    0.0000 C   0  0
    6.6648   -7.5307    0.0000 H   0  0
    6.6222   -4.9570    0.0000 H   0  0
  2  3  2  0
  3  6  1  0
  4  1  1  0
  5  4  1  0
  6  1  1  0
  7 24  2  0
  5  8  1  6
  4  9  1  0
 10  2  1  0
 11  3  1  0
 12 16  1  0
 13 15  1  0
 14  7  1  0
  1 15  1  0
 16 22  2  0
 17 21  1  0
  6 18  1  1
 19 20  1  0
 20 11  2  0
 21  8  2  0
 22  8  1  0
 23 31  2  0
 24 27  1  0
 25 20  1  0
 26 19  1  0
 27 18  1  0
 28 25  1  0
 29  9  2  0
 30 14  2  0
 31 34  1  0
 32 12  1  0
 33 14  1  0
 34 27  2  0
 35 17  1  0
 36 16  1  0
 37 23  1  0
 38 36  1  0
 39 33  1  0
 40 35  1  0
  9 13  1  0
  2  5  1  0
 19 10  2  0
 17 12  2  0
  7 23  1  0
 28 26  1  0
  4 41  1  1
  1 42  1  6
M  END
> <chembl_id>
CHEMBL287649

$$$$

  SciTegic06281015402D

 46 52  0  0  0  0            999 V2000
    6.1583   -4.4125    0.0000 C   0  0  2  0  0  0
    5.4500   -4.8292    0.0000 C   0  0  1  0  0  0
    5.4458   -5.6500    0.0000 C   0  0
    6.1542   -6.0667    0.0000 C   0  0
    6.8750   -4.8250    0.0000 C   0  0  1  0  0  0
    6.8750   -5.6583    0.0000 C   0  0  2  0  0  0
    4.7333   -3.5917    0.0000 C   0  0  1  0  0  0
    4.7333   -1.9417    0.0000 C   0  0  1  0  0  0
    4.0250   -3.1792    0.0000 C   0  0  1  0  0  0
    4.0250   -2.3542    0.0000 C   0  0  1  0  0  0
    5.4458   -3.1792    0.0000 O   0  0
    4.7333   -4.4167    0.0000 O   0  0
    7.5875   -6.0708    0.0000 C   0  0
    5.4458   -2.3583    0.0000 C   0  0  2  0  0  0
    7.4875   -4.2750    0.0000 C   0  0
    4.7375   -1.1167    0.0000 O   0  0
    4.7375   -6.0542    0.0000 C   0  0
    6.1542   -6.8833    0.0000 C   0  0
    9.0083   -6.9042    0.0000 C   0  0
    7.1542   -3.5208    0.0000 O   0  0
    6.3333   -3.6083    0.0000 C   0  0
    8.2875   -7.3083    0.0000 C   0  0
    9.0125   -6.0792    0.0000 C   0  0
    5.4417   -7.2875    0.0000 C   0  0
    4.7333   -6.8792    0.0000 C   0  0
    7.5792   -6.8958    0.0000 C   0  0
    8.3000   -5.6583    0.0000 C   0  0
    6.1708   -1.1333    0.0000 O   0  0
    5.4583   -0.7125    0.0000 C   0  0  1  0  0  0
    4.1250   -7.4250    0.0000 O   0  0
    5.2708   -8.0917    0.0000 O   0  0
    6.1583   -1.9583    0.0000 C   0  0
    4.4542   -8.1750    0.0000 C   0  0
    8.2958   -4.4458    0.0000 O   0  0
    3.3083   -3.5958    0.0000 O   0  0
    3.3083   -1.9458    0.0000 O   0  0
    9.7208   -7.3208    0.0000 O   0  0
    9.7292   -5.6708    0.0000 O   0  0
    8.2833   -8.1333    0.0000 O   0  0
    5.4708    0.1125    0.0000 C   0  0
    7.5667   -8.5417    0.0000 C   0  0
   10.4417   -6.0875    0.0000 C   0  0
    5.4417   -4.0000    0.0000 H   0  0
    7.5875   -5.2375    0.0000 H   0  0
    6.1542   -2.7667    0.0000 H   0  0
    4.0167   -1.5292    0.0000 H   0  0
  2  1  1  0
  3  2  1  0
  4  6  1  0
  5  1  1  0
  6  5  1  0
  7 12  1  1
  8 14  1  0
  9  7  1  0
 10  9  1  0
 11  7  1  0
  2 12  1  1
  6 13  1  6
 14 11  1  0
 15  5  1  0
 16  8  1  0
 17  3  2  0
 18  4  2  0
 19 23  2  0
 20 21  1  0
 21  1  1  0
 22 26  2  0
 23 27  1  0
 24 18  1  0
 25 17  1  0
 26 13  1  0
 27 13  2  0
 28 32  1  0
 29 28  1  0
 30 25  1  0
 31 24  1  0
 32 14  1  0
 33 30  1  0
 34 15  2  0
  9 35  1  6
 10 36  1  1
 37 19  1  0
 38 23  1  0
 39 22  1  0
 29 40  1  6
 41 39  1  0
 42 38  1  0
  1 43  1  6
  5 44  1  1
 14 45  1  6
  8 46  1  1
 20 15  1  0
  3  4  1  0
 25 24  2  0
 19 22  1  0
  8 10  1  0
 31 33  1  0
 16 29  1  0
M  END
> <chembl_id>
CHEMBL44657

$$$$

  SciTegic11201309402D

 39 43  0  0  0  0            999 V2000
    2.6043    0.7226    0.0000 C   0  0  1  0  0  0
    0.0000   -0.7090    0.0000 C   0  0
    0.0000    0.7226    0.0000 C   0  0
    2.6043   -0.7090    0.0000 C   0  0  1  0  0  0
    1.2953   -1.4862    0.0000 C   0  0  2  0  0  0
    1.2953    1.4998    0.0000 C   0  0  1  0  0  0
    1.2919   -2.9869    0.0000 C   0  0
    4.0359   -1.2135    0.0000 C   0  0
   -1.2953    1.4998    0.0000 C   0  0
   -1.2953   -1.4862    0.0000 C   0  0
    1.2488   -5.9862    0.0000 C   0  0
    4.9222    0.0000    0.0000 O   0  0
    4.0359    1.2135    0.0000 C   0  0
   -0.0395   -5.2179    0.0000 C   0  0
    2.5583   -5.2547    0.0000 C   0  0
    1.2919    3.0001    0.0000 N   0  0
   -2.6043   -0.7090    0.0000 C   0  0
   -2.6043    0.7226    0.0000 C   0  0
    2.5796   -3.7549    0.0000 C   0  0
   -0.0182   -3.7180    0.0000 C   0  0
   -4.0359    1.2135    0.0000 O   0  0
   -4.0359   -1.2135    0.0000 O   0  0
   -4.9222    0.0000    0.0000 C   0  0
    2.5895    3.7544    0.0000 C   0  0
    4.3912   -2.3597    0.0000 O   0  0
    2.5882    5.2544    0.0000 C   0  0
    1.2317   -7.1861    0.0000 O   0  0
    3.8866    6.0055    0.0000 C   0  0
    3.8489   -6.0209    0.0000 O   0  0
   -1.3513   -5.9471    0.0000 O   0  0
    3.8856    7.2055    0.0000 N   0  0
    7.6876    0.0097    0.0000 Cl  0  0
    5.1876    3.7566    0.0000 C   0  0
    3.8892    3.0055    0.0000 C   0  0
    5.1863    5.2566    0.0000 C   0  0
   -2.3810   -5.3309    0.0000 C   0  0
    4.8957   -5.4342    0.0000 C   0  0
    2.7026   -1.7042    0.0000 H   0  0
    2.7069    1.7173    0.0000 H   0  0
  2  3  2  0
  1  4  1  0
  2  5  1  0
  4  5  1  0
  1  6  1  0
  3  6  1  0
  5  7  1  6
  4  8  1  0
  3  9  1  0
  2 10  1  0
  8 12  1  0
  1 13  1  0
 12 13  1  0
 11 14  1  0
 11 15  2  0
  6 16  1  1
 10 17  2  0
  9 18  2  0
 17 18  1  0
  7 19  2  0
 15 19  1  0
  7 20  1  0
 14 20  2  0
 18 21  1  0
 17 22  1  0
 21 23  1  0
 22 23  1  0
 16 24  1  0
  8 25  2  0
 24 26  2  0
 11 27  1  0
 26 28  1  0
 15 29  1  0
 14 30  1  0
 28 31  1  0
 24 34  1  0
 33 34  2  0
 28 35  2  0
 33 35  1  0
 30 36  1  0
 29 37  1  0
  4 38  1  1
  1 39  1  6
M  END
> <chembl_id>
CHEMBL538984

$$$$

  SciTegic11201309402D

 37 42  0  0  1  0            999 V2000
    7.1167   -4.9792    0.0000 C   0  0  1  0  0  0
    6.0875   -5.6125    0.0000 C   0  0
    6.0667   -5.0042    0.0000 C   0  0
    7.1292   -5.5875    0.0000 C   0  0  1  0  0  0
    6.6167   -5.9042    0.0000 C   0  0  2  0  0  0
    6.5792   -4.6917    0.0000 C   0  0  1  0  0  0
    6.6292   -6.5042    0.0000 C   0  0
    7.7125   -5.7417    0.0000 C   0  0
    5.5417   -4.7292    0.0000 C   0  0
    5.5792   -5.9292    0.0000 C   0  0
    6.6625   -7.7042    0.0000 C   0  0
    8.0542   -5.2625    0.0000 O   0  0
    7.7042   -4.8167    0.0000 C   0  0
    6.5667   -4.0917    0.0000 N   0  0
    6.1292   -7.4125    0.0000 C   0  0
    7.1750   -7.3792    0.0000 C   0  0
    5.0542   -5.6417    0.0000 C   0  0
    5.0375   -5.0417    0.0000 C   0  0
    6.1167   -6.8125    0.0000 C   0  0
    7.1542   -6.7792    0.0000 C   0  0
    7.0917   -3.7667    0.0000 C   0  0
    4.4875   -5.8542    0.0000 O   0  0
    4.4542   -4.8750    0.0000 O   0  0
    7.0667   -3.1542    0.0000 N   0  0
    4.1125   -5.3667    0.0000 C   0  0
    7.9042   -6.3042    0.0000 O   0  0
    6.6792   -8.3042    0.0000 O   0  0
    7.7042   -7.6667    0.0000 O   0  0
    5.6250   -7.7292    0.0000 O   0  0
    7.5875   -2.8292    0.0000 C   0  0
    7.6167   -4.0542    0.0000 C   0  0
    7.7167   -8.2667    0.0000 C   0  0
    5.6417   -8.3292    0.0000 C   0  0
    8.1292   -3.1292    0.0000 C   0  0
    8.1417   -3.7417    0.0000 C   0  0
    7.2762   -6.5766    0.0000 H   0  0
    7.2271   -3.9853    0.0000 H   0  0
  2  3  2  0
  3  6  1  0
  4  1  1  0
  5  4  1  0
  6  1  1  0
  5  7  1  6
  4  8  1  0
  9  3  1  0
 10  2  1  0
 11 16  1  0
 12 13  1  0
  1 13  1  0
  6 14  1  1
 15 19  1  0
 16 20  2  0
 17 18  1  0
 18  9  2  0
 19  7  2  0
 20  7  1  0
 21 14  1  0
 22 17  1  0
 23 18  1  0
 24 21  2  0
 25 23  1  0
 26  8  2  0
 27 11  1  0
 28 16  1  0
 29 15  1  0
 30 24  1  0
 31 21  1  0
 32 28  1  0
 33 29  1  0
 34 35  1  0
 35 31  2  0
  8 12  1  0
  2  5  1  0
 10 17  2  0
 15 11  2  0
 34 30  2  0
 25 22  1  0
  4 36  1  1
  1 37  1  6
M  END
> <chembl_id>
CHEMBL286542

$$$$

  SciTegic11201309402D

 42 47  0  0  1  0            999 V2000
    7.0375   -5.3667    0.0000 C   0  0  2  0  0  0
    6.5167   -5.0875    0.0000 C   0  0  1  0  0  0
    6.0125   -5.3917    0.0000 C   0  0
    6.0292   -5.9875    0.0000 C   0  0
    7.0500   -5.9625    0.0000 C   0  0  1  0  0  0
    6.5500   -6.2667    0.0000 C   0  0  2  0  0  0
    6.5000   -4.5000    0.0000 N   0  0
    6.5625   -6.8542    0.0000 C   0  0
    7.6167   -6.1125    0.0000 C   0  0
    6.9500   -3.4500    0.0000 C   0  0
    5.4917   -5.1167    0.0000 C   0  0
    5.5292   -6.2917    0.0000 C   0  0
    7.0292   -4.1042    0.0000 C   0  0
    6.5917   -8.0292    0.0000 C   0  0
    7.9542   -5.6417    0.0000 O   0  0
    7.6167   -5.2042    0.0000 C   0  0
    6.3417   -3.1917    0.0000 C   0  0
    7.0917   -7.7167    0.0000 C   0  0
    6.0750   -7.7500    0.0000 C   0  0
    5.0000   -5.4292    0.0000 C   0  0
    5.0167   -6.0167    0.0000 C   0  0
    7.0792   -7.1292    0.0000 C   0  0
    6.0625   -7.1625    0.0000 C   0  0
    4.4625   -6.2250    0.0000 O   0  0
    4.4292   -5.2542    0.0000 O   0  0
    4.0917   -5.7500    0.0000 C   0  0
    7.8125   -6.6625    0.0000 O   0  0
    6.2667   -2.5417    0.0000 O   0  0
    6.6042   -8.6167    0.0000 O   0  0
    7.6167   -8.0000    0.0000 O   0  0
    5.8250   -3.5917    0.0000 O   0  0
    5.5792   -8.0542    0.0000 O   0  0
    7.4750   -3.0542    0.0000 C   0  0
    7.6292   -4.3625    0.0000 C   0  0
    5.2167   -3.3292    0.0000 C   0  0
    7.6292   -8.5875    0.0000 C   0  0
    5.5917   -8.6417    0.0000 C   0  0
    8.0792   -3.3167    0.0000 C   0  0
    8.1625   -3.9667    0.0000 C   0  0
    4.7000   -3.7292    0.0000 C   0  0
    7.1934   -6.9522    0.0000 H   0  0
    7.1466   -4.3727    0.0000 H   0  0
  2  1  1  0
  3  2  1  0
  4  6  1  0
  5  1  1  0
  6  5  1  0
  2  7  1  1
  6  8  1  6
  5  9  1  0
 10 13  1  0
 11  3  1  0
 12  4  1  0
 13  7  1  0
 14 19  2  0
 15 16  1  0
  1 16  1  0
 17 10  1  0
 18 22  2  0
 19 23  1  0
 20 11  2  0
 21 12  2  0
 22  8  1  0
 23  8  2  0
 24 21  1  0
 25 20  1  0
 26 25  1  0
 27  9  2  0
 28 17  2  0
 29 14  1  0
 30 18  1  0
 31 17  1  0
 32 19  1  0
 33 10  2  0
 34 13  2  0
 35 31  1  0
 36 30  1  0
 37 32  1  0
 38 39  2  0
 39 34  1  0
 40 35  1  0
  9 15  1  0
  3  4  2  0
 14 18  1  0
 20 21  1  0
 33 38  1  0
 26 24  1  0
  5 41  1  1
  1 42  1  6
M  END
> <chembl_id>
CHEMBL31470

$$$$

  CDK    9/16/09,9:20

 37 42  0  0  0  0  0  0  0  0999 V2000
   15.6571   -1.4642    0.0000 C   0  0  0  0  0  0  0  0  0  0  0  0
   15.6544    0.1869    0.0000 C   0  0  0  0  0  0  0  0  0  0  0  0
   16.3707   -0.2217    0.0000 C   0  0  0  0  0  0  0  0  0  0  0  0
   16.3689   -1.0572    0.0000 C   0  0  0  0  0  0  0  0  0  0  0  0
   17.0834   -1.4709    0.0000 C   0  0  0  0  0  0  0  0  0  0  0  0
   17.0870    0.1917    0.0000 C   0  0  0  0  0  0  0  0  0  0  0  0
   17.8083   -0.2249    0.0000 C   0  0  0  0  0  0  0  0  0  0  0  0
   17.8033   -1.0575    0.0000 C   0  0  0  0  0  0  0  0  0  0  0  0
   18.5939   -1.3162    0.0000 C   0  0  0  0  0  0  0  0  0  0  0  0
   19.0848   -0.6467    0.0000 O   0  0  0  0  0  0  0  0  0  0  0  0
   18.5978    0.0285    0.0000 C   0  0  0  0  0  0  0  0  0  0  0  0
   14.9417   -1.0541    0.0000 C   0  0  0  0  0  0  0  0  0  0  0  0
   14.9436   -0.2249    0.0000 C   0  0  0  0  0  0  0  0  0  0  0  0
   14.1594    0.0299    0.0000 O   0  0  0  0  0  0  0  0  0  0  0  0
   13.6689   -0.6387    0.0000 C   0  0  0  0  0  0  0  0  0  0  0  0
   14.1564   -1.3093    0.0000 O   0  0  0  0  0  0  0  0  0  0  0  0
   18.8445   -2.1010    0.0000 O   0  0  0  0  0  0  0  0  0  0  0  0
   17.0856   -2.2916    0.0000 C   0  0  0  0  0  0  0  0  0  0  0  0
   16.3716   -2.7031    0.0000 C   0  0  0  0  0  0  0  0  0  0  0  0
   16.3696   -3.5252    0.0000 C   0  0  0  0  0  0  0  0  0  0  0  0
   17.0846   -3.9415    0.0000 C   0  0  0  0  0  0  0  0  0  0  0  0
   17.7997   -3.5224    0.0000 C   0  0  0  0  0  0  0  0  0  0  0  0
   17.7964   -2.7023    0.0000 C   0  0  0  0  0  0  0  0  0  0  0  0
   18.5161   -3.9336    0.0000 O   0  0  0  0  0  0  0  0  0  0  0  0
   17.0848   -4.7648    0.0000 O   0  0  0  0  0  0  0  0  0  0  0  0
   17.8083    0.6001    0.0000 H   0  0  0  0  0  0  0  0  0  0  0  0
   17.8033   -1.8825    0.0000 H   0  0  0  0  0  0  0  0  0  0  0  0
   15.6539   -3.9355    0.0000 O   0  0  0  0  0  0  0  0  0  0  0  0
   14.9407   -3.5209    0.0000 C   0  0  0  0  0  0  0  0  0  0  0  0
   19.2295   -3.5193    0.0000 C   0  0  0  0  0  0  0  0  0  0  0  0
   17.0870    1.0167    0.0000 N   0  0  0  0  0  0  0  0  0  0  0  0
   16.3726    1.4292    0.0000 C   0  0  0  0  0  0  0  0  0  0  0  0
   16.3772    2.2512    0.0000 C   0  0  0  0  0  0  0  0  0  0  0  0
   15.6636    2.6637    0.0000 C   0  0  0  0  0  0  0  0  0  0  0  0
   14.9481    2.2512    0.0000 C   0  0  0  0  0  0  0  0  0  0  0  0
   14.9507    1.4219    0.0000 C   0  0  0  0  0  0  0  0  0  0  0  0
   15.6649    1.0132    0.0000 C   0  0  0  0  0  0  0  0  0  0  0  0
  7  8  1  0  0  0  0 
  8  9  1  0  0  0  0 
  9 10  1  0  0  0  0 
 10 11  1  0  0  0  0 
  7 11  1  0  0  0  0 
 12 13  2  0  0  0  0 
 13 14  1  0  0  0  0 
 14 15  1  0  0  0  0 
 15 16  1  0  0  0  0 
 16 12  1  0  0  0  0 
  9 17  2  0  0  0  0 
 18 19  1  0  0  0  0 
 19 20  2  0  0  0  0 
 20 21  1  0  0  0  0 
 21 22  2  0  0  0  0 
 22 23  1  0  0  0  0 
 23 18  2  0  0  0  0 
  5 18  1  6  0  0  0 
 22 24  1  0  0  0  0 
 21 25  1  0  0  0  0 
  7 26  1  6  0  0  0 
  8 27  1  1  0  0  0 
 20 28  1  0  0  0  0 
 12  1  1  0  0  0  0 
 28 29  1  0  0  0  0 
  1  4  2  0  0  0  0 
 24 30  1  0  0  0  0 
  3  2  2  0  0  0  0 
  6 31  1  1  0  0  0 
  2 13  1  0  0  0  0 
 31 32  1  0  0  0  0 
  3  4  1  0  0  0  0 
 32 33  2  0  0  0  0 
  3  6  1  0  0  0  0 
 33 34  1  0  0  0  0 
  4  5  1  0  0  0  0 
 34 35  2  0  0  0  0 
  5  8  1  0  0  0  0 
 35 36  1  0  0  0  0 
  7  6  1  0  0  0  0 
 36 37  2  0  0  0  0 
 37 32  1  0  0  0  0 
M  END
> <chembl_id>
CHEMBL281532

$$$$

  SciTegic11201309402D

 40 44  0  0  0  0            999 V2000
    2.6043    0.7226    0.0000 C   0  0  2  0  0  0
    1.2953    1.4998    0.0000 C   0  0  1  0  0  0
    0.0000    0.7226    0.0000 C   0  0
    0.0000   -0.7090    0.0000 C   0  0
    2.6043   -0.7090    0.0000 C   0  0  1  0  0  0
    1.2953   -1.4862    0.0000 C   0  0  2  0  0  0
    1.2919    3.0001    0.0000 N   0  0
    1.2919   -2.9869    0.0000 C   0  0
    4.0359   -1.2135    0.0000 C   0  0
   -1.2953   -1.4862    0.0000 C   0  0
   -1.2953    1.4998    0.0000 C   0  0
    2.5895    3.7544    0.0000 C   0  0
    1.2488   -5.9862    0.0000 C   0  0
    4.9222    0.0000    0.0000 O   0  0
    4.0359    1.2135    0.0000 C   0  0
    2.5583   -5.2547    0.0000 C   0  0
   -0.0395   -5.2179    0.0000 C   0  0
   -2.6043    0.7226    0.0000 C   0  0
   -2.6043   -0.7090    0.0000 C   0  0
    2.5796   -3.7549    0.0000 C   0  0
   -0.0182   -3.7180    0.0000 C   0  0
    3.8893    3.0055    0.0000 C   0  0
   -4.0359    1.2135    0.0000 O   0  0
   -4.0359   -1.2135    0.0000 O   0  0
    2.5882    5.2544    0.0000 C   0  0
   -4.9222    0.0000    0.0000 C   0  0
    4.3912   -2.3597    0.0000 O   0  0
    5.1876    3.7567    0.0000 C   0  0
    3.8866    6.0055    0.0000 C   0  0
    1.2317   -7.1861    0.0000 O   0  0
   -1.3513   -5.9471    0.0000 O   0  0
    3.8489   -6.0209    0.0000 O   0  0
    6.2274    3.1576    0.0000 N   0  0
    5.1863    5.2567    0.0000 C   0  0
    1.5485    5.8535    0.0000 O   0  0
    8.9880   -0.7407    0.0000 Cl  0  0
   -2.3810   -5.3309    0.0000 C   0  0
    4.8957   -5.4342    0.0000 C   0  0
    2.7026   -1.7042    0.0000 H   0  0
    2.7069    1.7173    0.0000 H   0  0
  1  2  1  0
  2  3  1  0
  3  4  2  0
  1  5  1  0
  4  6  1  0
  5  6  1  0
  2  7  1  1
  6  8  1  6
  5  9  1  0
  4 10  1  0
  3 11  1  0
  7 12  1  0
  9 14  1  0
  1 15  1  0
 14 15  1  0
 13 16  1  0
 13 17  2  0
 11 18  2  0
 10 19  2  0
 18 19  1  0
  8 20  1  0
 16 20  2  0
  8 21  2  0
 17 21  1  0
 12 22  1  0
 18 23  1  0
 19 24  1  0
 12 25  2  0
 23 26  1  0
 24 26  1  0
  9 27  2  0
 22 28  2  0
 25 29  1  0
 13 30  1  0
 17 31  1  0
 16 32  1  0
 28 33  1  0
 28 34  1  0
 29 34  2  0
 25 35  1  0
 31 37  1  0
 32 38  1  0
  5 39  1  1
  1 40  1  6
M  END
> <chembl_id>
CHEMBL541276

$$$$

  CDK    9/16/09,9:20

 40 45  0  0  0  0  0  0  0  0999 V2000
   16.4571  -23.7850    0.0000 C   0  0  0  0  0  0  0  0  0  0  0  0
   16.4544  -22.1339    0.0000 C   0  0  0  0  0  0  0  0  0  0  0  0
   17.1707  -22.5426    0.0000 C   0  0  0  0  0  0  0  0  0  0  0  0
   17.1689  -23.3780    0.0000 C   0  0  0  0  0  0  0  0  0  0  0  0
   17.8834  -23.7918    0.0000 C   0  0  0  0  0  0  0  0  0  0  0  0
   17.8870  -22.1292    0.0000 C   0  0  0  0  0  0  0  0  0  0  0  0
   18.6083  -22.5457    0.0000 C   0  0  0  0  0  0  0  0  0  0  0  0
   18.6033  -23.3783    0.0000 C   0  0  0  0  0  0  0  0  0  0  0  0
   19.3939  -23.6371    0.0000 C   0  0  0  0  0  0  0  0  0  0  0  0
   19.8848  -22.9675    0.0000 O   0  0  0  0  0  0  0  0  0  0  0  0
   19.3978  -22.2923    0.0000 C   0  0  0  0  0  0  0  0  0  0  0  0
   15.7417  -23.3749    0.0000 C   0  0  0  0  0  0  0  0  0  0  0  0
   15.7436  -22.5457    0.0000 C   0  0  0  0  0  0  0  0  0  0  0  0
   14.9594  -22.2909    0.0000 O   0  0  0  0  0  0  0  0  0  0  0  0
   14.4689  -22.9595    0.0000 C   0  0  0  0  0  0  0  0  0  0  0  0
   14.9564  -23.6301    0.0000 O   0  0  0  0  0  0  0  0  0  0  0  0
   19.6445  -24.4218    0.0000 O   0  0  0  0  0  0  0  0  0  0  0  0
   17.8856  -24.6124    0.0000 C   0  0  0  0  0  0  0  0  0  0  0  0
   17.1716  -25.0239    0.0000 C   0  0  0  0  0  0  0  0  0  0  0  0
   17.1696  -25.8461    0.0000 C   0  0  0  0  0  0  0  0  0  0  0  0
   17.8846  -26.2623    0.0000 C   0  0  0  0  0  0  0  0  0  0  0  0
   18.5997  -25.8432    0.0000 C   0  0  0  0  0  0  0  0  0  0  0  0
   18.5964  -25.0231    0.0000 C   0  0  0  0  0  0  0  0  0  0  0  0
   19.3161  -26.2544    0.0000 O   0  0  0  0  0  0  0  0  0  0  0  0
   17.8848  -27.0856    0.0000 O   0  0  0  0  0  0  0  0  0  0  0  0
   18.6083  -21.7207    0.0000 H   0  0  0  0  0  0  0  0  0  0  0  0
   18.6033  -24.2033    0.0000 H   0  0  0  0  0  0  0  0  0  0  0  0
   16.4539  -26.2564    0.0000 O   0  0  0  0  0  0  0  0  0  0  0  0
   15.7407  -25.8417    0.0000 C   0  0  0  0  0  0  0  0  0  0  0  0
   20.0295  -25.8402    0.0000 C   0  0  0  0  0  0  0  0  0  0  0  0
   17.8870  -21.3042    0.0000 N   0  0  0  0  0  0  0  0  0  0  0  0
   17.1726  -20.8916    0.0000 C   0  0  0  0  0  0  0  0  0  0  0  0
   17.1772  -20.0696    0.0000 C   0  0  0  0  0  0  0  0  0  0  0  0
   16.4636  -19.6571    0.0000 C   0  0  0  0  0  0  0  0  0  0  0  0
   15.7481  -20.0696    0.0000 C   0  0  0  0  0  0  0  0  0  0  0  0
   15.7507  -20.8989    0.0000 C   0  0  0  0  0  0  0  0  0  0  0  0
   16.4649  -21.3077    0.0000 C   0  0  0  0  0  0  0  0  0  0  0  0
   15.0272  -19.6566    0.0000 N   0  0  0  0  0  0  0  0  0  0  0  0
   14.3133  -20.0700    0.0000 O   0  0  0  0  0  0  0  0  0  0  0  0
   15.0262  -18.8316    0.0000 O   0  0  0  0  0  0  0  0  0  0  0  0
 10 11  1  0  0  0  0 
  7 11  1  0  0  0  0 
 12 13  2  0  0  0  0 
 13 14  1  0  0  0  0 
 14 15  1  0  0  0  0 
 15 16  1  0  0  0  0 
 16 12  1  0  0  0  0 
  9 17  2  0  0  0  0 
 18 19  1  0  0  0  0 
 19 20  2  0  0  0  0 
 20 21  1  0  0  0  0 
 21 22  2  0  0  0  0 
 22 23  1  0  0  0  0 
 23 18  2  0  0  0  0 
  5 18  1  6  0  0  0 
 22 24  1  0  0  0  0 
 21 25  1  0  0  0  0 
  7 26  1  6  0  0  0 
  8 27  1  1  0  0  0 
 20 28  1  0  0  0  0 
 12  1  1  0  0  0  0 
 28 29  1  0  0  0  0 
  1  4  2  0  0  0  0 
 24 30  1  0  0  0  0 
  3  2  2  0  0  0  0 
  6 31  1  1  0  0  0 
  2 13  1  0  0  0  0 
 31 32  1  0  0  0  0 
  3  4  1  0  0  0  0 
 32 33  2  0  0  0  0 
  3  6  1  0  0  0  0 
 33 34  1  0  0  0  0 
  4  5  1  0  0  0  0 
 34 35  2  0  0  0  0 
  5  8  1  0  0  0  0 
 35 36  1  0  0  0  0 
  7  6  1  0  0  0  0 
 36 37  2  0  0  0  0 
 37 32  1  0  0  0  0 
  7  8  1  0  0  0  0 
  8  9  1  0  0  0  0 
  9 10  1  0  0  0  0 
 38 39  2  0  0  0  0 
 38 40  1  0  0  0  0 
 35 38  1  0  0  0  0 
M  CHG  1  38   1
M  CHG  1  40  -1
M  END
> <chembl_id>
CHEMBL283631

$$$$

  SciTegic11201309402D

 40 45  0  0  1  0            999 V2000
    7.0375   -5.6292    0.0000 C   0  0  1  0  0  0
    6.0292   -6.2417    0.0000 C   0  0
    6.0125   -5.6542    0.0000 C   0  0
    7.0500   -6.2167    0.0000 C   0  0  1  0  0  0
    6.5500   -6.5292    0.0000 C   0  0  2  0  0  0
    6.5167   -5.3417    0.0000 C   0  0  1  0  0  0
    6.5625   -7.1167    0.0000 C   0  0
    7.6167   -6.3667    0.0000 C   0  0
    5.4917   -5.3792    0.0000 C   0  0
    5.5292   -6.5542    0.0000 C   0  0
    6.5917   -8.2917    0.0000 C   0  0
    7.9542   -5.9042    0.0000 O   0  0
    7.6167   -5.4667    0.0000 C   0  0
    7.0917   -7.9792    0.0000 C   0  0
    6.0750   -8.0042    0.0000 C   0  0
    6.5000   -4.7542    0.0000 N   0  0
    5.0167   -6.2792    0.0000 C   0  0
    5.0000   -5.6875    0.0000 C   0  0
    6.0625   -7.4167    0.0000 C   0  0
    7.0792   -7.3917    0.0000 C   0  0
    7.4750   -3.3167    0.0000 C   0  0
    4.4625   -6.4792    0.0000 O   0  0
    4.4292   -5.5167    0.0000 O   0  0
    7.3917   -2.6542    0.0000 C   0  0
    4.0917   -6.0042    0.0000 C   0  0
    7.0292   -4.3542    0.0000 C   0  0
    6.9500   -3.7042    0.0000 C   0  0
    7.8125   -6.9167    0.0000 O   0  0
    6.7792   -2.4000    0.0000 O   0  0
    6.6042   -8.8792    0.0000 O   0  0
    5.5792   -8.3167    0.0000 O   0  0
    7.6167   -8.2542    0.0000 O   0  0
    8.0792   -3.5750    0.0000 C   0  0
    8.1625   -4.2250    0.0000 C   0  0
    7.6292   -4.6167    0.0000 C   0  0
    7.9167   -2.2542    0.0000 C   0  0
    5.5917   -8.9042    0.0000 C   0  0
    7.6292   -8.8417    0.0000 C   0  0
    7.1994   -7.2055    0.0000 H   0  0
    7.1527   -4.6359    0.0000 H   0  0
  2  3  2  0
  3  6  1  0
  4  1  1  0
  5  4  1  0
  6  1  1  0
  5  7  1  6
  4  8  1  0
  9  3  1  0
 10  2  1  0
 11 14  1  0
 12 13  1  0
  1 13  1  0
 14 20  2  0
 15 19  1  0
  6 16  1  1
 17 18  1  0
 18  9  2  0
 19  7  2  0
 20  7  1  0
 21 27  2  0
 22 17  1  0
 23 18  1  0
 24 21  1  0
 25 23  1  0
 26 16  1  0
 27 26  1  0
 28  8  2  0
 29 24  2  0
 30 11  1  0
 31 15  1  0
 32 14  1  0
 33 34  2  0
 34 35  1  0
 35 26  2  0
 36 24  1  0
 37 31  1  0
 38 32  1  0
  8 12  1  0
  2  5  1  0
 17 10  2  0
 15 11  2  0
 21 33  1  0
 25 22  1  0
  4 39  1  1
  1 40  1  6
M  END
> <chembl_id>
CHEMBL31225

$$$$

  SciTegic11201309402D

 39 44  0  0  1  0            999 V2000
    6.9167   -5.6917    0.0000 C   0  0  1  0  0  0
    5.9125   -6.3125    0.0000 C   0  0
    5.8917   -5.7167    0.0000 C   0  0
    6.9292   -6.2875    0.0000 C   0  0  1  0  0  0
    6.4292   -6.5917    0.0000 C   0  0  2  0  0  0
    6.4000   -5.4125    0.0000 C   0  0  1  0  0  0
    6.4417   -7.1792    0.0000 C   0  0
    7.5042   -6.4375    0.0000 C   0  0
    5.3792   -5.4417    0.0000 C   0  0
    5.4167   -6.6167    0.0000 C   0  0
    6.4750   -8.3542    0.0000 C   0  0
    7.8417   -5.9667    0.0000 O   0  0
    7.5000   -5.5375    0.0000 C   0  0
    6.9792   -8.0417    0.0000 C   0  0
    5.9542   -8.0750    0.0000 C   0  0
    6.3792   -4.8250    0.0000 N   0  0
    4.9042   -6.3417    0.0000 C   0  0
    4.8792   -5.7542    0.0000 C   0  0
    5.9417   -7.4875    0.0000 C   0  0
    6.9625   -7.4542    0.0000 C   0  0
    4.3125   -5.5875    0.0000 O   0  0
    4.3417   -6.5500    0.0000 O   0  0
    3.9792   -6.0750    0.0000 C   0  0
    7.6917   -6.9875    0.0000 O   0  0
    6.9125   -4.4250    0.0000 C   0  0
    6.4917   -8.9417    0.0000 O   0  0
    6.8292   -3.7750    0.0000 C   0  0
    7.5000   -8.3250    0.0000 O   0  0
    5.4625   -8.3792    0.0000 O   0  0
    7.3542   -3.3792    0.0000 C   0  0
    7.8042   -2.3250    0.0000 O   0  0
    8.0417   -4.2917    0.0000 C   0  0
    7.5125   -4.6875    0.0000 C   0  0
    7.2750   -2.7250    0.0000 C   0  0
    7.9667   -3.6417    0.0000 C   0  0
    7.5125   -8.9125    0.0000 C   0  0
    5.4750   -8.9667    0.0000 C   0  0
    7.0744   -7.2769    0.0000 H   0  0
    7.0349   -4.6987    0.0000 H   0  0
  2  3  2  0
  3  6  1  0
  4  1  1  0
  5  4  1  0
  6  1  1  0
  5  7  1  6
  4  8  1  0
  9  3  1  0
 10  2  1  0
 11 14  1  0
 12 13  1  0
  1 13  1  0
 14 20  2  0
 15 19  1  0
  6 16  1  1
 17 18  1  0
 18  9  2  0
 19  7  2  0
 20  7  1  0
 21 18  1  0
 22 17  1  0
 23 21  1  0
 24  8  2  0
 25 16  1  0
 26 11  1  0
 27 25  1  0
 28 14  1  0
 29 15  1  0
 30 27  2  0
 31 34  1  0
 32 33  1  0
 33 25  2  0
 34 30  1  0
 35 32  2  0
 36 28  1  0
 37 29  1  0
  8 12  1  0
  2  5  1  0
 17 10  2  0
 15 11  2  0
 30 35  1  0
 23 22  1  0
  4 38  1  1
  1 39  1  6
M  END
> <chembl_id>
CHEMBL31586

$$$$

  SciTegic11201309402D

 38 43  0  0  1  0            999 V2000
    3.3292   -0.8792    0.0000 C   0  0  1  0  0  0
    2.3000   -1.5042    0.0000 C   0  0
    2.2792   -0.9042    0.0000 C   0  0
    3.3417   -1.4792    0.0000 C   0  0  1  0  0  0
    2.8292   -1.8000    0.0000 C   0  0  2  0  0  0
    2.7917   -0.5917    0.0000 C   0  0  1  0  0  0
    2.8417   -2.4000    0.0000 C   0  0
    3.9250   -1.6375    0.0000 C   0  0
    1.7542   -0.6250    0.0000 C   0  0
    1.7917   -1.8250    0.0000 C   0  0
    2.8750   -3.6000    0.0000 C   0  0
    4.2667   -1.1542    0.0000 O   0  0
    3.9167   -0.7125    0.0000 C   0  0
    3.3875   -3.2792    0.0000 C   0  0
    2.3417   -3.3042    0.0000 C   0  0
    1.2500   -0.9375    0.0000 C   0  0
    1.2667   -1.5417    0.0000 C   0  0
    2.7792    0.0083    0.0000 S   0  0
    2.3292   -2.7042    0.0000 C   0  0
    3.3667   -2.6792    0.0000 C   0  0
    0.6667   -0.7667    0.0000 O   0  0
    0.7000   -1.7500    0.0000 O   0  0
    0.3250   -1.2667    0.0000 C   0  0
    4.1167   -2.2000    0.0000 O   0  0
    3.3042    0.3333    0.0000 C   0  0
    2.8917   -4.1917    0.0000 O   0  0
    1.8375   -3.6250    0.0000 O   0  0
    3.9167   -3.5667    0.0000 O   0  0
    4.3375    0.9708    0.0000 C   0  0
    3.8292    0.0458    0.0000 C   0  0
    3.2792    0.9458    0.0000 C   0  0
    3.8000    1.2708    0.0000 C   0  0
    4.3542    0.3625    0.0000 C   0  0
    4.8500    1.2833    0.0000 O   0  0
    1.8542   -4.2250    0.0000 C   0  0
    3.9292   -4.1667    0.0000 C   0  0
    3.4883   -2.4684    0.0000 H   0  0
    3.4363    0.1150    0.0000 H   0  0
  2  3  2  0
  3  6  1  0
  4  1  1  0
  5  4  1  0
  6  1  1  0
  5  7  1  6
  4  8  1  0
  9  3  1  0
 10  2  1  0
 11 14  1  0
 12 13  1  0
  1 13  1  0
 14 20  2  0
 15 19  1  0
 16  9  2  0
 17 16  1  0
  6 18  1  1
 19  7  2  0
 20  7  1  0
 21 16  1  0
 22 17  1  0
 23 21  1  0
 24  8  2  0
 25 18  1  0
 26 11  1  0
 27 15  1  0
 28 14  1  0
 29 32  2  0
 30 25  1  0
 31 25  2  0
 32 31  1  0
 33 30  2  0
 34 29  1  0
 35 27  1  0
 36 28  1  0
  8 12  1  0
  2  5  1  0
 33 29  1  0
 17 10  2  0
 15 11  2  0
 23 22  1  0
  4 37  1  1
  1 38  1  6
M  END
> <chembl_id>
CHEMBL31839

$$$$

  SciTegic11201309402D

 38 43  0  0  1  0            999 V2000
    1.3167   -0.6917    0.0000 C   0  0  1  0  0  0
    0.2792   -1.2875    0.0000 C   0  0
    0.2792   -0.6875    0.0000 C   0  0
    1.3125   -1.2875    0.0000 C   0  0  1  0  0  0
    0.7917   -1.5875    0.0000 C   0  0  2  0  0  0
    0.8000   -0.3875    0.0000 C   0  0  1  0  0  0
    0.7917   -2.1875    0.0000 C   0  0
    1.8792   -1.4750    0.0000 C   0  0
   -0.2458   -1.5875    0.0000 C   0  0
   -0.2458   -0.3875    0.0000 C   0  0
    0.7875   -3.3792    0.0000 C   0  0
    2.2292   -0.9917    0.0000 O   0  0
    1.8875   -0.5125    0.0000 C   0  0
    0.2667   -3.0792    0.0000 C   0  0
    1.3042   -3.0792    0.0000 C   0  0
    0.8000    0.2125    0.0000 N   0  0
   -0.7583   -1.2875    0.0000 C   0  0
   -0.7583   -0.6792    0.0000 C   0  0
    1.3042   -2.4792    0.0000 C   0  0
    0.2667   -2.4792    0.0000 C   0  0
   -1.3333   -0.4917    0.0000 O   0  0
   -1.3333   -1.4667    0.0000 O   0  0
   -1.6833   -0.9792    0.0000 C   0  0
    1.3167    0.5125    0.0000 C   0  0
    2.0542   -2.0500    0.0000 O   0  0
    1.3167    1.1083    0.0000 C   0  0
    0.7875   -3.9792    0.0000 O   0  0
    1.8375    1.4083    0.0000 C   0  0
    1.8292   -3.3792    0.0000 O   0  0
   -0.2583   -3.3792    0.0000 O   0  0
    1.8375    2.0083    0.0000 O   0  0
    2.3542    0.5083    0.0000 C   0  0
    1.8375    0.2083    0.0000 C   0  0
    2.3542    1.1083    0.0000 C   0  0
    2.3500   -3.0792    0.0000 C   0  0
   -0.7708   -3.0792    0.0000 C   0  0
    1.4139   -2.2823    0.0000 H   0  0
    1.4304    0.3018    0.0000 H   0  0
  2  3  2  0
  3  6  1  0
  4  1  1  0
  5  4  1  0
  6  1  1  0
  5  7  1  6
  4  8  1  0
  9  2  1  0
 10  3  1  0
 11 14  2  0
 12 13  1  0
  1 13  1  0
 14 20  1  0
 15 19  2  0
  6 16  1  1
 17 18  1  0
 18 10  2  0
 19  7  1  0
 20  7  2  0
 21 18  1  0
 22 17  1  0
 23 21  1  0
 24 16  1  0
 25  8  2  0
 26 24  1  0
 27 11  1  0
 28 26  2  0
 29 15  1  0
 30 14  1  0
 31 28  1  0
 32 33  1  0
 33 24  2  0
 34 32  2  0
 35 29  1  0
 36 30  1  0
 12  8  1  0
  5  2  1  0
  9 17  2  0
 11 15  1  0
 34 28  1  0
 22 23  1  0
  4 37  1  1
  1 38  1  6
M  END
> <chembl_id>
CHEMBL286509

$$$$

  SciTegic11201309402D

 39 44  0  0  1  0            999 V2000
    7.0375   -5.7750    0.0000 C   0  0  1  0  0  0
    6.0292   -6.3917    0.0000 C   0  0
    6.0125   -5.8000    0.0000 C   0  0
    7.0500   -6.3667    0.0000 C   0  0  1  0  0  0
    6.5500   -6.6750    0.0000 C   0  0  2  0  0  0
    6.5167   -5.4917    0.0000 C   0  0  1  0  0  0
    6.5625   -7.2625    0.0000 C   0  0
    7.6167   -6.5167    0.0000 C   0  0
    5.4917   -5.5250    0.0000 C   0  0
    5.5292   -6.7000    0.0000 C   0  0
    6.5917   -8.4375    0.0000 C   0  0
    7.9542   -6.0500    0.0000 O   0  0
    7.6167   -5.6167    0.0000 C   0  0
    7.0917   -8.1250    0.0000 C   0  0
    6.0750   -8.1542    0.0000 C   0  0
    6.5000   -4.9042    0.0000 N   0  0
    5.0167   -6.4250    0.0000 C   0  0
    5.0000   -5.8292    0.0000 C   0  0
    6.0625   -7.5667    0.0000 C   0  0
    7.0792   -7.5375    0.0000 C   0  0
    7.3125   -2.1417    0.0000 N   0  0
    7.3917   -2.8042    0.0000 C   0  0
    4.4292   -5.6625    0.0000 O   0  0
    4.4625   -6.6292    0.0000 O   0  0
    4.0917   -6.1542    0.0000 C   0  0
    7.8125   -7.0667    0.0000 O   0  0
    7.0292   -4.5042    0.0000 C   0  0
    7.4750   -3.4625    0.0000 C   0  0
    6.6042   -9.0250    0.0000 O   0  0
    6.9500   -3.8542    0.0000 C   0  0
    5.5792   -8.4625    0.0000 O   0  0
    7.6167   -8.4042    0.0000 O   0  0
    8.1625   -4.3667    0.0000 C   0  0
    7.6292   -4.7667    0.0000 C   0  0
    8.0792   -3.7167    0.0000 C   0  0
    7.6292   -8.9917    0.0000 C   0  0
    5.5917   -9.0500    0.0000 C   0  0
    7.1964   -7.3559    0.0000 H   0  0
    7.1529   -4.7817    0.0000 H   0  0
  2  3  2  0
  3  6  1  0
  4  1  1  0
  5  4  1  0
  6  1  1  0
  5  7  1  6
  4  8  1  0
  9  3  1  0
 10  2  1  0
 11 14  1  0
 12 13  1  0
  1 13  1  0
 14 20  2  0
 15 19  1  0
  6 16  1  1
 17 18  1  0
 18  9  2  0
 19  7  2  0
 20  7  1  0
 21 22  3  0
 22 28  1  0
 23 18  1  0
 24 17  1  0
 25 23  1  0
 26  8  2  0
 27 16  1  0
 28 30  2  0
 29 11  1  0
 30 27  1  0
 31 15  1  0
 32 14  1  0
 33 34  1  0
 34 27  2  0
 35 33  2  0
 36 32  1  0
 37 31  1  0
  8 12  1  0
  2  5  1  0
 10 17  2  0
 15 11  2  0
 28 35  1  0
 25 24  1  0
  4 38  1  1
  1 39  1  6
M  END
> <chembl_id>
CHEMBL283266

$$$$

  CDK    9/16/09,9:20

 38 43  0  0  0  0  0  0  0  0999 V2000
   11.8030  -11.9725    0.0000 C   0  0  0  0  0  0  0  0  0  0  0  0
   11.8002  -10.3214    0.0000 C   0  0  0  0  0  0  0  0  0  0  0  0
   12.5166  -10.7301    0.0000 C   0  0  0  0  0  0  0  0  0  0  0  0
   12.5148  -11.5655    0.0000 C   0  0  0  0  0  0  0  0  0  0  0  0
   13.2292  -11.9793    0.0000 C   0  0  0  0  0  0  0  0  0  0  0  0
   13.2328  -10.3167    0.0000 C   0  0  0  0  0  0  0  0  0  0  0  0
   13.9541  -10.7332    0.0000 C   0  0  0  0  0  0  0  0  0  0  0  0
   13.9492  -11.5658    0.0000 C   0  0  0  0  0  0  0  0  0  0  0  0
   14.7398  -11.8246    0.0000 C   0  0  0  0  0  0  0  0  0  0  0  0
   15.2306  -11.1550    0.0000 O   0  0  0  0  0  0  0  0  0  0  0  0
   14.7436  -10.4798    0.0000 C   0  0  0  0  0  0  0  0  0  0  0  0
   11.0875  -11.5624    0.0000 C   0  0  0  0  0  0  0  0  0  0  0  0
   11.0894  -10.7332    0.0000 C   0  0  0  0  0  0  0  0  0  0  0  0
   10.3053  -10.4784    0.0000 O   0  0  0  0  0  0  0  0  0  0  0  0
    9.8147  -11.1470    0.0000 C   0  0  0  0  0  0  0  0  0  0  0  0
   10.3023  -11.8176    0.0000 O   0  0  0  0  0  0  0  0  0  0  0  0
   14.9903  -12.6093    0.0000 O   0  0  0  0  0  0  0  0  0  0  0  0
   13.2315  -12.7999    0.0000 C   0  0  0  0  0  0  0  0  0  0  0  0
   12.5175  -13.2114    0.0000 C   0  0  0  0  0  0  0  0  0  0  0  0
   12.5154  -14.0336    0.0000 C   0  0  0  0  0  0  0  0  0  0  0  0
   13.2304  -14.4498    0.0000 C   0  0  0  0  0  0  0  0  0  0  0  0
   13.9455  -14.0307    0.0000 C   0  0  0  0  0  0  0  0  0  0  0  0
   13.9423  -13.2106    0.0000 C   0  0  0  0  0  0  0  0  0  0  0  0
   14.6619  -14.4419    0.0000 O   0  0  0  0  0  0  0  0  0  0  0  0
   13.2306  -15.2731    0.0000 O   0  0  0  0  0  0  0  0  0  0  0  0
   13.9541   -9.9082    0.0000 H   0  0  0  0  0  0  0  0  0  0  0  0
   13.9492  -12.3908    0.0000 H   0  0  0  0  0  0  0  0  0  0  0  0
   11.7997  -14.4439    0.0000 O   0  0  0  0  0  0  0  0  0  0  0  0
   11.0865  -14.0292    0.0000 C   0  0  0  0  0  0  0  0  0  0  0  0
   15.3754  -14.0277    0.0000 C   0  0  0  0  0  0  0  0  0  0  0  0
   13.2329   -9.4917    0.0000 O   0  0  0  0  0  0  0  0  0  0  0  0
   12.5184   -9.0791    0.0000 C   0  0  0  0  0  0  0  0  0  0  0  0
   12.5231   -8.2571    0.0000 C   0  0  0  0  0  0  0  0  0  0  0  0
   11.8095   -7.8446    0.0000 C   0  0  0  0  0  0  0  0  0  0  0  0
   11.0940   -8.2571    0.0000 C   0  0  0  0  0  0  0  0  0  0  0  0
   11.0965   -9.0864    0.0000 C   0  0  0  0  0  0  0  0  0  0  0  0
   11.8107   -9.4952    0.0000 C   0  0  0  0  0  0  0  0  0  0  0  0
   10.3790   -7.8455    0.0000 F   0  0  0  0  0  0  0  0  0  0  0  0
  8  9  1  0  0  0  0 
  9 10  1  0  0  0  0 
 10 11  1  0  0  0  0 
  7 11  1  0  0  0  0 
 12 13  2  0  0  0  0 
 13 14  1  0  0  0  0 
 14 15  1  0  0  0  0 
 15 16  1  0  0  0  0 
 16 12  1  0  0  0  0 
  9 17  2  0  0  0  0 
 18 19  1  0  0  0  0 
 19 20  2  0  0  0  0 
 20 21  1  0  0  0  0 
 21 22  2  0  0  0  0 
 22 23  1  0  0  0  0 
 23 18  2  0  0  0  0 
  5 18  1  6  0  0  0 
 22 24  1  0  0  0  0 
 21 25  1  0  0  0  0 
  7 26  1  6  0  0  0 
  8 27  1  1  0  0  0 
 20 28  1  0  0  0  0 
 12  1  1  0  0  0  0 
 28 29  1  0  0  0  0 
  1  4  2  0  0  0  0 
 24 30  1  0  0  0  0 
  3  2  2  0  0  0  0 
  6 31  1  1  0  0  0 
  2 13  1  0  0  0  0 
 31 32  1  0  0  0  0 
  3  4  1  0  0  0  0 
 32 33  2  0  0  0  0 
  3  6  1  0  0  0  0 
 33 34  1  0  0  0  0 
  4  5  1  0  0  0  0 
 34 35  2  0  0  0  0 
  5  8  1  0  0  0  0 
 35 36  1  0  0  0  0 
  7  6  1  0  0  0  0 
 36 37  2  0  0  0  0 
 37 32  1  0  0  0  0 
  7  8  1  0  0  0  0 
 35 38  1  0  0  0  0 
M  END
> <chembl_id>
CHEMBL32568

$$$$

  SciTegic11201309402D

 41 46  0  0  1  0            999 V2000
    6.4500   -5.3750    0.0000 C   0  0  2  0  0  0
    5.9292   -5.0917    0.0000 C   0  0  1  0  0  0
    5.4250   -5.4000    0.0000 C   0  0
    5.4417   -5.9917    0.0000 C   0  0
    6.4625   -5.9667    0.0000 C   0  0  1  0  0  0
    5.9625   -6.2750    0.0000 C   0  0  2  0  0  0
    8.1792   -4.2292    0.0000 N   0  3
    5.9125   -4.5042    0.0000 N   0  0
    5.9750   -6.8625    0.0000 C   0  0
    7.0292   -6.1167    0.0000 C   0  0
    6.4417   -4.1042    0.0000 C   0  0
    4.9417   -6.3000    0.0000 C   0  0
    4.9042   -5.1250    0.0000 C   0  0
    6.0042   -8.0375    0.0000 C   0  0
    7.3667   -5.6500    0.0000 O   0  0
    7.5750   -3.9667    0.0000 C   0  0
    7.0292   -5.2167    0.0000 C   0  0
    7.0417   -4.3667    0.0000 C   0  0
    5.4875   -7.7542    0.0000 C   0  0
    6.5042   -7.7250    0.0000 C   0  0
    4.4292   -6.0250    0.0000 C   0  0
    4.4125   -5.4292    0.0000 C   0  0
    5.4750   -7.1667    0.0000 C   0  0
    6.4917   -7.1375    0.0000 C   0  0
    8.2667   -4.8875    0.0000 O   0  5
    3.8750   -6.2292    0.0000 O   0  0
    3.8417   -5.2667    0.0000 O   0  0
    8.7167   -3.8292    0.0000 O   0  0
    6.3625   -3.4542    0.0000 C   0  0
    3.5042   -5.7542    0.0000 C   0  0
    7.2250   -6.6667    0.0000 O   0  0
    7.4917   -3.3167    0.0000 C   0  0
    6.8875   -3.0625    0.0000 C   0  0
    6.0167   -8.6250    0.0000 O   0  0
    4.9917   -8.0625    0.0000 O   0  0
    7.0292   -8.0042    0.0000 O   0  0
    5.7542   -3.2000    0.0000 O   0  0
    7.0417   -8.5917    0.0000 C   0  0
    5.0042   -8.6500    0.0000 C   0  0
    6.6089   -6.9559    0.0000 H   0  0
    6.5654   -4.3817    0.0000 H   0  0
  2  1  1  0
  3  2  1  0
  4  6  1  0
  5  1  1  0
  6  5  1  0
  7 16  1  0
  2  8  1  1
  6  9  1  6
  5 10  1  0
 11  8  1  0
 12  4  1  0
 13  3  1  0
 14 20  1  0
 15 17  1  0
 16 18  1  0
  1 17  1  0
 18 11  2  0
 19 23  1  0
 20 24  2  0
 21 12  2  0
 22 13  2  0
 23  9  2  0
 24  9  1  0
 25  7  1  0
 26 21  1  0
 27 22  1  0
 28  7  2  0
 29 11  1  0
 30 27  1  0
 31 10  2  0
 32 33  1  0
 33 29  2  0
 34 14  1  0
 35 19  1  0
 36 20  1  0
 37 29  1  0
 38 36  1  0
 39 35  1  0
 10 15  1  0
  3  4  2  0
 22 21  1  0
 19 14  2  0
 16 32  2  0
 30 26  1  0
  5 40  1  1
  1 41  1  6
M  CHG  2   7   1  25  -1
M  END
> <chembl_id>
CHEMBL280569

$$$$

  CDK    9/16/09,9:20

 42 47  0  0  0  0  0  0  0  0999 V2000
   11.2988   -2.1517    0.0000 C   0  0  0  0  0  0  0  0  0  0  0  0
   11.2961   -0.5006    0.0000 C   0  0  0  0  0  0  0  0  0  0  0  0
   12.0124   -0.9092    0.0000 C   0  0  0  0  0  0  0  0  0  0  0  0
   12.0106   -1.7447    0.0000 C   0  0  0  0  0  0  0  0  0  0  0  0
   12.7250   -2.1584    0.0000 C   0  0  0  0  0  0  0  0  0  0  0  0
   12.7286   -0.4958    0.0000 C   0  0  0  0  0  0  0  0  0  0  0  0
   13.4500   -0.9124    0.0000 C   0  0  0  0  0  0  0  0  0  0  0  0
   13.4450   -1.7450    0.0000 C   0  0  0  0  0  0  0  0  0  0  0  0
   14.2356   -2.0037    0.0000 C   0  0  0  0  0  0  0  0  0  0  0  0
   14.7265   -1.3342    0.0000 O   0  0  0  0  0  0  0  0  0  0  0  0
   14.2394   -0.6590    0.0000 C   0  0  0  0  0  0  0  0  0  0  0  0
   10.5834   -1.7416    0.0000 C   0  0  0  0  0  0  0  0  0  0  0  0
   10.5852   -0.9124    0.0000 C   0  0  0  0  0  0  0  0  0  0  0  0
    9.8011   -0.6576    0.0000 O   0  0  0  0  0  0  0  0  0  0  0  0
    9.3106   -1.3262    0.0000 C   0  0  0  0  0  0  0  0  0  0  0  0
    9.7981   -1.9968    0.0000 O   0  0  0  0  0  0  0  0  0  0  0  0
   14.4861   -2.7885    0.0000 O   0  0  0  0  0  0  0  0  0  0  0  0
   12.7273   -2.9791    0.0000 C   0  0  0  0  0  0  0  0  0  0  0  0
   12.0133   -3.3906    0.0000 C   0  0  0  0  0  0  0  0  0  0  0  0
   12.0113   -4.2127    0.0000 C   0  0  0  0  0  0  0  0  0  0  0  0
   12.7263   -4.6290    0.0000 C   0  0  0  0  0  0  0  0  0  0  0  0
   13.4414   -4.2099    0.0000 C   0  0  0  0  0  0  0  0  0  0  0  0
   13.4381   -3.3898    0.0000 C   0  0  0  0  0  0  0  0  0  0  0  0
   14.1578   -4.6211    0.0000 O   0  0  0  0  0  0  0  0  0  0  0  0
   12.7264   -5.4523    0.0000 O   0  0  0  0  0  0  0  0  0  0  0  0
   13.4500   -0.0874    0.0000 H   0  0  0  0  0  0  0  0  0  0  0  0
   13.4450   -2.5700    0.0000 H   0  0  0  0  0  0  0  0  0  0  0  0
   11.2955   -4.6230    0.0000 O   0  0  0  0  0  0  0  0  0  0  0  0
   10.5823   -4.2084    0.0000 C   0  0  0  0  0  0  0  0  0  0  0  0
   14.8712   -4.2068    0.0000 C   0  0  0  0  0  0  0  0  0  0  0  0
   12.7287    0.3292    0.0000 N   0  0  0  0  0  0  0  0  0  0  0  0
   12.0143    0.7417    0.0000 C   0  0  0  0  0  0  0  0  0  0  0  0
   12.0189    1.5637    0.0000 C   0  0  0  0  0  0  0  0  0  0  0  0
   11.3053    1.9762    0.0000 C   0  0  0  0  0  0  0  0  0  0  0  0
   10.5898    1.5637    0.0000 C   0  0  0  0  0  0  0  0  0  0  0  0
   10.5924    0.7344    0.0000 C   0  0  0  0  0  0  0  0  0  0  0  0
   11.3066    0.3257    0.0000 C   0  0  0  0  0  0  0  0  0  0  0  0
    9.8793    0.3195    0.0000 O   0  0  0  0  0  0  0  0  0  0  0  0
    9.8729    1.9739    0.0000 C   0  0  0  0  0  0  0  0  0  0  0  0
    9.8718    2.7989    0.0000 O   0  0  0  0  0  0  0  0  0  0  0  0
    9.1589    1.5605    0.0000 O   0  0  0  0  0  0  0  0  0  0  0  0
   10.5858    3.2123    0.0000 C   0  0  0  0  0  0  0  0  0  0  0  0
 12 13  2  0  0  0  0 
 13 14  1  0  0  0  0 
 14 15  1  0  0  0  0 
 15 16  1  0  0  0  0 
 16 12  1  0  0  0  0 
  9 17  2  0  0  0  0 
 18 19  1  0  0  0  0 
 19 20  2  0  0  0  0 
 20 21  1  0  0  0  0 
 21 22  2  0  0  0  0 
 22 23  1  0  0  0  0 
 23 18  2  0  0  0  0 
  5 18  1  6  0  0  0 
 22 24  1  0  0  0  0 
 21 25  1  0  0  0  0 
  7 26  1  6  0  0  0 
  8 27  1  1  0  0  0 
 20 28  1  0  0  0  0 
 12  1  1  0  0  0  0 
 28 29  1  0  0  0  0 
  1  4  2  0  0  0  0 
 24 30  1  0  0  0  0 
  3  2  2  0  0  0  0 
  6 31  1  1  0  0  0 
  2 13  1  0  0  0  0 
 31 32  1  0  0  0  0 
  3  4  1  0  0  0  0 
 32 33  2  0  0  0  0 
  3  6  1  0  0  0  0 
 33 34  1  0  0  0  0 
  4  5  1  0  0  0  0 
 34 35  2  0  0  0  0 
  5  8  1  0  0  0  0 
 35 36  1  0  0  0  0 
  7  6  1  0  0  0  0 
 36 37  2  0  0  0  0 
 37 32  1  0  0  0  0 
  7  8  1  0  0  0  0 
 36 38  1  0  0  0  0 
  8  9  1  0  0  0  0 
  9 10  1  0  0  0  0 
 10 11  1  0  0  0  0 
 39 40  1  0  0  0  0 
 39 41  2  0  0  0  0 
 35 39  1  0  0  0  0 
  7 11  1  0  0  0  0 
 40 42  1  0  0  0  0 
M  END
> <chembl_id>
CHEMBL285183

$$$$

  CDK    9/16/09,9:20

 40 45  0  0  0  0  0  0  0  0999 V2000
   16.1613  -22.7642    0.0000 C   0  0  0  0  0  0  0  0  0  0  0  0
   16.1586  -21.1131    0.0000 C   0  0  0  0  0  0  0  0  0  0  0  0
   16.8749  -21.5217    0.0000 C   0  0  0  0  0  0  0  0  0  0  0  0
   16.8731  -22.3572    0.0000 C   0  0  0  0  0  0  0  0  0  0  0  0
   17.5875  -22.7709    0.0000 C   0  0  0  0  0  0  0  0  0  0  0  0
   17.5911  -21.1083    0.0000 C   0  0  0  0  0  0  0  0  0  0  0  0
   18.3125  -21.5249    0.0000 C   0  0  0  0  0  0  0  0  0  0  0  0
   18.3075  -22.3575    0.0000 C   0  0  0  0  0  0  0  0  0  0  0  0
   19.0981  -22.6162    0.0000 C   0  0  0  0  0  0  0  0  0  0  0  0
   19.5890  -21.9467    0.0000 O   0  0  0  0  0  0  0  0  0  0  0  0
   19.1019  -21.2715    0.0000 C   0  0  0  0  0  0  0  0  0  0  0  0
   15.4459  -22.3541    0.0000 C   0  0  0  0  0  0  0  0  0  0  0  0
   15.4477  -21.5249    0.0000 C   0  0  0  0  0  0  0  0  0  0  0  0
   14.6636  -21.2701    0.0000 O   0  0  0  0  0  0  0  0  0  0  0  0
   14.1731  -21.9387    0.0000 C   0  0  0  0  0  0  0  0  0  0  0  0
   14.6606  -22.6093    0.0000 O   0  0  0  0  0  0  0  0  0  0  0  0
   19.3486  -23.4010    0.0000 O   0  0  0  0  0  0  0  0  0  0  0  0
   17.5898  -23.5916    0.0000 C   0  0  0  0  0  0  0  0  0  0  0  0
   16.8758  -24.0031    0.0000 C   0  0  0  0  0  0  0  0  0  0  0  0
   16.8738  -24.8252    0.0000 C   0  0  0  0  0  0  0  0  0  0  0  0
   17.5888  -25.2415    0.0000 C   0  0  0  0  0  0  0  0  0  0  0  0
   18.3039  -24.8224    0.0000 C   0  0  0  0  0  0  0  0  0  0  0  0
   18.3006  -24.0023    0.0000 C   0  0  0  0  0  0  0  0  0  0  0  0
   19.0203  -25.2336    0.0000 O   0  0  0  0  0  0  0  0  0  0  0  0
   17.5889  -26.0648    0.0000 O   0  0  0  0  0  0  0  0  0  0  0  0
   18.3125  -20.6999    0.0000 H   0  0  0  0  0  0  0  0  0  0  0  0
   18.3075  -23.1825    0.0000 H   0  0  0  0  0  0  0  0  0  0  0  0
   16.1580  -25.2355    0.0000 O   0  0  0  0  0  0  0  0  0  0  0  0
   15.4448  -24.8209    0.0000 C   0  0  0  0  0  0  0  0  0  0  0  0
   19.7337  -24.8193    0.0000 C   0  0  0  0  0  0  0  0  0  0  0  0
   17.5912  -20.2833    0.0000 N   0  0  0  0  0  0  0  0  0  0  0  0
   16.8768  -19.8708    0.0000 C   0  0  0  0  0  0  0  0  0  0  0  0
   16.8814  -19.0488    0.0000 C   0  0  0  0  0  0  0  0  0  0  0  0
   16.1678  -18.6363    0.0000 C   0  0  0  0  0  0  0  0  0  0  0  0
   15.4523  -19.0488    0.0000 C   0  0  0  0  0  0  0  0  0  0  0  0
   15.4549  -19.8781    0.0000 C   0  0  0  0  0  0  0  0  0  0  0  0
   16.1691  -20.2868    0.0000 C   0  0  0  0  0  0  0  0  0  0  0  0
   16.1684  -17.8076    0.0000 N   0  0  0  0  0  0  0  0  0  0  0  0
   15.4541  -17.3947    0.0000 O   0  0  0  0  0  0  0  0  0  0  0  0
   16.8831  -17.3955    0.0000 O   0  0  0  0  0  0  0  0  0  0  0  0
 10 11  1  0  0  0  0 
  7 11  1  0  0  0  0 
 12 13  2  0  0  0  0 
 13 14  1  0  0  0  0 
 14 15  1  0  0  0  0 
 15 16  1  0  0  0  0 
 16 12  1  0  0  0  0 
  9 17  2  0  0  0  0 
 18 19  1  0  0  0  0 
 19 20  2  0  0  0  0 
 20 21  1  0  0  0  0 
 21 22  2  0  0  0  0 
 22 23  1  0  0  0  0 
 23 18  2  0  0  0  0 
  5 18  1  6  0  0  0 
 22 24  1  0  0  0  0 
 21 25  1  0  0  0  0 
  7 26  1  6  0  0  0 
  8 27  1  1  0  0  0 
 20 28  1  0  0  0  0 
 12  1  1  0  0  0  0 
 28 29  1  0  0  0  0 
  1  4  2  0  0  0  0 
 24 30  1  0  0  0  0 
  3  2  2  0  0  0  0 
  6 31  1  1  0  0  0 
  2 13  1  0  0  0  0 
 31 32  1  0  0  0  0 
  3  4  1  0  0  0  0 
 32 33  2  0  0  0  0 
  3  6  1  0  0  0  0 
 33 34  1  0  0  0  0 
  4  5  1  0  0  0  0 
 34 35  2  0  0  0  0 
  5  8  1  0  0  0  0 
 35 36  1  0  0  0  0 
  7  6  1  0  0  0  0 
 36 37  2  0  0  0  0 
 37 32  1  0  0  0  0 
  7  8  1  0  0  0  0 
  8  9  1  0  0  0  0 
  9 10  1  0  0  0  0 
 38 39  2  0  0  0  0 
 38 40  1  0  0  0  0 
 34 38  1  0  0  0  0 
M  CHG  1  38   1
M  CHG  1  40  -1
M  END
> <chembl_id>
CHEMBL29039

$$$$
